1



                                 *********************************************

                                    NUMERICAL ELECTROMAGNETICS CODE (NEC-2D)

                                 *********************************************




                                     - - - - COMMENTS - - - -


                          Wire Antenna Fast Ground                                                   
                                                                                                     




                                 - - - STRUCTURE SPECIFICATION - - -

                                     COORDINATES MUST BE INPUT IN
                                     METERS OR BE SCALED TO METERS
                                     BEFORE STRUCTURE INPUT IS ENDED


  WIRE                                                                               NO. OF    FIRST  LAST     TAG
  NO.        X1         Y1         Z1          X2         Y2         Z2      RADIUS   SEG.     SEG.   SEG.     NO.
     1    0.00000    0.00000   25.00000   500.00000    0.00000   25.00000    0.02000    100        1   100       1
     2    0.00000    0.00000    0.00000     0.00000    0.00000   25.00000    0.02000      3      101   103       2
     3  500.00000    0.00000   25.00000   500.00000    0.00000    0.00000    0.02000      3      104   106       3

   TOTAL SEGMENTS USED=  106     NO. SEG. IN A SYMMETRIC CELL=  106     SYMMETRY FLAG=  0


         - MULTIPLE WIRE JUNCTIONS -
 JUNCTION    SEGMENTS  (- FOR END 1, + FOR END 2)
  NONE




                                 - - - - SEGMENTATION DATA - - - -

                                        COORDINATES IN METERS

                         I+ AND I- INDICATE THE SEGMENTS BEFORE AND AFTER I


  SEG.   COORDINATES OF SEG. CENTER     SEG.     ORIENTATION ANGLES    WIRE    CONNECTION DATA   TAG
  NO.       X         Y         Z       LENGTH     ALPHA     BETA      RADIUS    I-   I    I+    NO.
     1   2.50000   0.00000  25.00000   5.00000    0.00000   0.00000   0.02000   103    1    2      1
     2   7.50000   0.00000  25.00000   5.00000    0.00000   0.00000   0.02000     1    2    3      1
     3  12.50000   0.00000  25.00000   5.00000    0.00000   0.00000   0.02000     2    3    4      1
     4  17.50000   0.00000  25.00000   5.00000    0.00000   0.00000   0.02000     3    4    5      1
     5  22.50000   0.00000  25.00000   5.00000    0.00000   0.00000   0.02000     4    5    6      1
     6  27.50000   0.00000  25.00000   5.00000    0.00000   0.00000   0.02000     5    6    7      1
     7  32.50000   0.00000  25.00000   5.00000    0.00000   0.00000   0.02000     6    7    8      1
     8  37.50000   0.00000  25.00000   5.00000    0.00000   0.00000   0.02000     7    8    9      1
     9  42.50000   0.00000  25.00000   5.00000    0.00000   0.00000   0.02000     8    9   10      1
    10  47.50000   0.00000  25.00000   5.00000    0.00000   0.00000   0.02000     9   10   11      1
    11  52.50000   0.00000  25.00000   5.00000    0.00000   0.00000   0.02000    10   11   12      1
    12  57.50000   0.00000  25.00000   5.00000    0.00000   0.00000   0.02000    11   12   13      1
    13  62.50000   0.00000  25.00000   5.00000    0.00000   0.00000   0.02000    12   13   14      1
    14  67.50000   0.00000  25.00000   5.00000    0.00000   0.00000   0.02000    13   14   15      1
    15  72.50000   0.00000  25.00000   5.00000    0.00000   0.00000   0.02000    14   15   16      1
    16  77.50000   0.00000  25.00000   5.00000    0.00000   0.00000   0.02000    15   16   17      1
    17  82.50000   0.00000  25.00000   5.00000    0.00000   0.00000   0.02000    16   17   18      1
    18  87.50000   0.00000  25.00000   5.00000    0.00000   0.00000   0.02000    17   18   19      1
    19  92.50000   0.00000  25.00000   5.00000    0.00000   0.00000   0.02000    18   19   20      1
    20  97.50000   0.00000  25.00000   5.00000    0.00000   0.00000   0.02000    19   20   21      1
    21 102.50000   0.00000  25.00000   5.00000    0.00000   0.00000   0.02000    20   21   22      1
    22 107.50000   0.00000  25.00000   5.00000    0.00000   0.00000   0.02000    21   22   23      1
    23 112.50000   0.00000  25.00000   5.00000    0.00000   0.00000   0.02000    22   23   24      1
    24 117.50000   0.00000  25.00000   5.00000    0.00000   0.00000   0.02000    23   24   25      1
    25 122.50000   0.00000  25.00000   5.00000    0.00000   0.00000   0.02000    24   25   26      1
    26 127.50000   0.00000  25.00000   5.00000    0.00000   0.00000   0.02000    25   26   27      1
    27 132.50000   0.00000  25.00000   5.00000    0.00000   0.00000   0.02000    26   27   28      1
    28 137.50000   0.00000  25.00000   5.00000    0.00000   0.00000   0.02000    27   28   29      1
    29 142.50000   0.00000  25.00000   5.00000    0.00000   0.00000   0.02000    28   29   30      1
    30 147.50000   0.00000  25.00000   5.00000    0.00000   0.00000   0.02000    29   30   31      1
    31 152.50000   0.00000  25.00000   5.00000    0.00000   0.00000   0.02000    30   31   32      1
    32 157.50000   0.00000  25.00000   5.00000    0.00000   0.00000   0.02000    31   32   33      1
    33 162.50000   0.00000  25.00000   5.00000    0.00000   0.00000   0.02000    32   33   34      1
    34 167.50000   0.00000  25.00000   5.00000    0.00000   0.00000   0.02000    33   34   35      1
    35 172.50000   0.00000  25.00000   5.00000    0.00000   0.00000   0.02000    34   35   36      1
    36 177.50000   0.00000  25.00000   5.00000    0.00000   0.00000   0.02000    35   36   37      1
    37 182.50000   0.00000  25.00000   5.00000    0.00000   0.00000   0.02000    36   37   38      1
    38 187.50000   0.00000  25.00000   5.00000    0.00000   0.00000   0.02000    37   38   39      1
    39 192.50000   0.00000  25.00000   5.00000    0.00000   0.00000   0.02000    38   39   40      1
    40 197.50000   0.00000  25.00000   5.00000    0.00000   0.00000   0.02000    39   40   41      1
    41 202.50000   0.00000  25.00000   5.00000    0.00000   0.00000   0.02000    40   41   42      1
    42 207.50000   0.00000  25.00000   5.00000    0.00000   0.00000   0.02000    41   42   43      1
    43 212.50000   0.00000  25.00000   5.00000    0.00000   0.00000   0.02000    42   43   44      1
    44 217.50000   0.00000  25.00000   5.00000    0.00000   0.00000   0.02000    43   44   45      1
    45 222.50000   0.00000  25.00000   5.00000    0.00000   0.00000   0.02000    44   45   46      1
    46 227.50000   0.00000  25.00000   5.00000    0.00000   0.00000   0.02000    45   46   47      1
    47 232.50000   0.00000  25.00000   5.00000    0.00000   0.00000   0.02000    46   47   48      1
    48 237.50000   0.00000  25.00000   5.00000    0.00000   0.00000   0.02000    47   48   49      1
    49 242.50000   0.00000  25.00000   5.00000    0.00000   0.00000   0.02000    48   49   50      1
    50 247.50000   0.00000  25.00000   5.00000    0.00000   0.00000   0.02000    49   50   51      1
    51 252.50000   0.00000  25.00000   5.00000    0.00000   0.00000   0.02000    50   51   52      1
    52 257.50000   0.00000  25.00000   5.00000    0.00000   0.00000   0.02000    51   52   53      1
    53 262.50000   0.00000  25.00000   5.00000    0.00000   0.00000   0.02000    52   53   54      1
    54 267.50000   0.00000  25.00000   5.00000    0.00000   0.00000   0.02000    53   54   55      1
    55 272.50000   0.00000  25.00000   5.00000    0.00000   0.00000   0.02000    54   55   56      1
    56 277.50000   0.00000  25.00000   5.00000    0.00000   0.00000   0.02000    55   56   57      1
    57 282.50000   0.00000  25.00000   5.00000    0.00000   0.00000   0.02000    56   57   58      1
    58 287.50000   0.00000  25.00000   5.00000    0.00000   0.00000   0.02000    57   58   59      1
    59 292.50000   0.00000  25.00000   5.00000    0.00000   0.00000   0.02000    58   59   60      1
    60 297.50000   0.00000  25.00000   5.00000    0.00000   0.00000   0.02000    59   60   61      1
    61 302.50000   0.00000  25.00000   5.00000    0.00000   0.00000   0.02000    60   61   62      1
    62 307.50000   0.00000  25.00000   5.00000    0.00000   0.00000   0.02000    61   62   63      1
    63 312.50000   0.00000  25.00000   5.00000    0.00000   0.00000   0.02000    62   63   64      1
    64 317.50000   0.00000  25.00000   5.00000    0.00000   0.00000   0.02000    63   64   65      1
    65 322.50000   0.00000  25.00000   5.00000    0.00000   0.00000   0.02000    64   65   66      1
    66 327.50000   0.00000  25.00000   5.00000    0.00000   0.00000   0.02000    65   66   67      1
    67 332.50000   0.00000  25.00000   5.00000    0.00000   0.00000   0.02000    66   67   68      1
    68 337.50000   0.00000  25.00000   5.00000    0.00000   0.00000   0.02000    67   68   69      1
    69 342.50000   0.00000  25.00000   5.00000    0.00000   0.00000   0.02000    68   69   70      1
    70 347.50000   0.00000  25.00000   5.00000    0.00000   0.00000   0.02000    69   70   71      1
    71 352.50000   0.00000  25.00000   5.00000    0.00000   0.00000   0.02000    70   71   72      1
    72 357.50000   0.00000  25.00000   5.00000    0.00000   0.00000   0.02000    71   72   73      1
    73 362.50000   0.00000  25.00000   5.00000    0.00000   0.00000   0.02000    72   73   74      1
    74 367.50000   0.00000  25.00000   5.00000    0.00000   0.00000   0.02000    73   74   75      1
    75 372.50000   0.00000  25.00000   5.00000    0.00000   0.00000   0.02000    74   75   76      1
    76 377.50000   0.00000  25.00000   5.00000    0.00000   0.00000   0.02000    75   76   77      1
    77 382.50000   0.00000  25.00000   5.00000    0.00000   0.00000   0.02000    76   77   78      1
    78 387.50000   0.00000  25.00000   5.00000    0.00000   0.00000   0.02000    77   78   79      1
    79 392.50000   0.00000  25.00000   5.00000    0.00000   0.00000   0.02000    78   79   80      1
    80 397.50000   0.00000  25.00000   5.00000    0.00000   0.00000   0.02000    79   80   81      1
    81 402.50000   0.00000  25.00000   5.00000    0.00000   0.00000   0.02000    80   81   82      1
    82 407.50000   0.00000  25.00000   5.00000    0.00000   0.00000   0.02000    81   82   83      1
    83 412.50000   0.00000  25.00000   5.00000    0.00000   0.00000   0.02000    82   83   84      1
    84 417.50000   0.00000  25.00000   5.00000    0.00000   0.00000   0.02000    83   84   85      1
    85 422.50000   0.00000  25.00000   5.00000    0.00000   0.00000   0.02000    84   85   86      1
    86 427.50000   0.00000  25.00000   5.00000    0.00000   0.00000   0.02000    85   86   87      1
    87 432.50000   0.00000  25.00000   5.00000    0.00000   0.00000   0.02000    86   87   88      1
    88 437.50000   0.00000  25.00000   5.00000    0.00000   0.00000   0.02000    87   88   89      1
    89 442.50000   0.00000  25.00000   5.00000    0.00000   0.00000   0.02000    88   89   90      1
    90 447.50000   0.00000  25.00000   5.00000    0.00000   0.00000   0.02000    89   90   91      1
    91 452.50000   0.00000  25.00000   5.00000    0.00000   0.00000   0.02000    90   91   92      1
    92 457.50000   0.00000  25.00000   5.00000    0.00000   0.00000   0.02000    91   92   93      1
    93 462.50000   0.00000  25.00000   5.00000    0.00000   0.00000   0.02000    92   93   94      1
    94 467.50000   0.00000  25.00000   5.00000    0.00000   0.00000   0.02000    93   94   95      1
    95 472.50000   0.00000  25.00000   5.00000    0.00000   0.00000   0.02000    94   95   96      1
    96 477.50000   0.00000  25.00000   5.00000    0.00000   0.00000   0.02000    95   96   97      1
    97 482.50000   0.00000  25.00000   5.00000    0.00000   0.00000   0.02000    96   97   98      1
    98 487.50000   0.00000  25.00000   5.00000    0.00000   0.00000   0.02000    97   98   99      1
    99 492.50000   0.00000  25.00000   5.00000    0.00000   0.00000   0.02000    98   99  100      1
   100 497.50000   0.00000  25.00000   5.00000    0.00000   0.00000   0.02000    99  100  104      1
   101   0.00000   0.00000   4.16667   8.33333   90.00000   0.00000   0.02000     0  101  102      2
   102   0.00000   0.00000  12.50000   8.33333   90.00000   0.00000   0.02000   101  102  103      2
   103   0.00000   0.00000  20.83333   8.33333   90.00000   0.00000   0.02000   102  103    1      2
   104 500.00000   0.00000  20.83333   8.33333  -90.00000   0.00000   0.02000   100  104  105      3
   105 500.00000   0.00000  12.50000   8.33333  -90.00000   0.00000   0.02000   104  105  106      3
   106 500.00000   0.00000   4.16667   8.33333  -90.00000   0.00000   0.02000   105  106    0      3






 ***** DATA CARD NO.  1   LD   0     3     1     3  5.10460E+02  0.00000E+00  0.00000E+00  0.00000E+00  0.00000E+00  0.00000E+00
 ***** DATA CARD NO.  2   GN   0     0     0     0  1.30000E+01  5.00000E-03  0.00000E+00  0.00000E+00  0.00000E+00  0.00000E+00
 ***** DATA CARD NO.  3   EK   0     0     0     0  0.00000E+00  0.00000E+00  0.00000E+00  0.00000E+00  0.00000E+00  0.00000E+00
 ***** DATA CARD NO.  4   EX   0     1     1     0  1.00000E+00  0.00000E+00  0.00000E+00  0.00000E+00  0.00000E+00  0.00000E+00
 ***** DATA CARD NO.  5   FR   0     0     0     0  3.00000E+00  0.00000E+00  0.00000E+00  0.00000E+00  0.00000E+00  0.00000E+00
 ***** DATA CARD NO.  6   RP   0    91   361  1003 -9.00000E+01  0.00000E+00  1.00000E+00  1.00000E+00  0.00000E+00  0.00000E+00




                                 - - - - - - FREQUENCY - - - - - -

                                    FREQUENCY= 3.0000E+00 MHZ
                                    WAVELENGTH= 9.9933E+01 METERS




                    APPROXIMATE INTEGRATION EMPLOYED FOR SEGMENTS MORE THAN   1.000 WAVELENGTHS APART

                    THE EXTENDED THIN WIRE KERNEL WILL BE USED



                               - - - STRUCTURE IMPEDANCE LOADING - - -


       LOCATION          RESISTANCE   INDUCTANCE  CAPACITANCE       IMPEDANCE (OHMS)     CONDUCTIVITY    TYPE
    ITAG FROM THRU          OHMS        HENRYS       FARADS        REAL      IMAGINARY    MHOS/METER

       3    1    3      5.1046E+02                                                                     SERIES 



                                  - - - ANTENNA ENVIRONMENT - - -

                                        FINITE GROUND.  REFLECTION COEFFICIENT APPROXIMATION
                                        RELATIVE DIELECTRIC CONST.= 13.000
                                        CONDUCTIVITY= 5.000E-03 MHOS/METER
                                        COMPLEX DIELECTRIC CONSTANT= 1.30000E+01-2.99600E+01



                                - - - MATRIX TIMING - - -

                        FILL=    0.031 SEC.,  FACTOR=    0.000 SEC.



                                          - - - ANTENNA INPUT PARAMETERS - - -

   TAG   SEG.    VOLTAGE (VOLTS)         CURRENT (AMPS)         IMPEDANCE (OHMS)        ADMITTANCE (MHOS)      POWER
   NO.   NO.    REAL        IMAG.       REAL        IMAG.       REAL        IMAG.       REAL        IMAG.     (WATTS)
     1     1 1.00000E+00 0.00000E+00 1.77990E-03 7.61179E-04 4.74964E+02-2.03120E+02 1.77990E-03 7.61179E-04 8.89951E-04



                             - - - CURRENTS AND LOCATION - - -

                                 DISTANCES IN WAVELENGTHS


  SEG.  TAG    COORD. OF SEG. CENTER     SEG.            - - - CURRENT (AMPS) - - -
  NO.   NO.     X        Y        Z      LENGTH     REAL        IMAG.       MAG.        PHASE
     1    1   0.0250   0.0000   0.2502  0.05003   1.7799E-03  7.6118E-04  1.9358E-03   23.154
     2    1   0.0751   0.0000   0.2502  0.05003   1.5945E-03  2.2208E-05  1.5946E-03    0.798
     3    1   0.1251   0.0000   0.2502  0.05003   1.2786E-03 -7.6285E-04  1.4889E-03  -30.822
     4    1   0.1751   0.0000   0.2502  0.05003   8.5993E-04 -1.4340E-03  1.6721E-03  -59.050
     5    1   0.2252   0.0000   0.2502  0.05003   3.7687E-04 -1.9457E-03  1.9818E-03  -79.038
     6    1   0.2752   0.0000   0.2502  0.05003  -1.2579E-04 -2.2563E-03  2.2598E-03  -93.191
     7    1   0.3252   0.0000   0.2502  0.05003  -6.0126E-04 -2.3406E-03  2.4166E-03 -104.407
     8    1   0.3753   0.0000   0.2502  0.05003  -1.0053E-03 -2.1942E-03  2.4135E-03 -114.617
     9    1   0.4253   0.0000   0.2502  0.05003  -1.3009E-03 -1.8339E-03  2.2485E-03 -125.349
    10    1   0.4753   0.0000   0.2502  0.05003  -1.4611E-03 -1.2971E-03  1.9538E-03 -138.404
    11    1   0.5254   0.0000   0.2502  0.05003  -1.4727E-03 -6.3742E-04  1.6048E-03 -156.596
    12    1   0.5754   0.0000   0.2502  0.05003  -1.3366E-03  7.9613E-05  1.3389E-03  176.591
    13    1   0.6254   0.0000   0.2502  0.05003  -1.0678E-03  7.8349E-04  1.3244E-03  143.732
    14    1   0.6755   0.0000   0.2502  0.05003  -6.9447E-04  1.4053E-03  1.5676E-03  116.297
    15    1   0.7255   0.0000   0.2502  0.05003  -2.5434E-04  1.8847E-03  1.9017E-03   97.686
    16    1   0.7755   0.0000   0.2502  0.05003   2.0845E-04  2.1751E-03  2.1851E-03   84.526
    17    1   0.8256   0.0000   0.2502  0.05003   6.4795E-04  2.2492E-03  2.3407E-03   73.929
    18    1   0.8756   0.0000   0.2502  0.05003   1.0208E-03  2.1005E-03  2.3354E-03   64.082
    19    1   0.9256   0.0000   0.2502  0.05003   1.2904E-03  1.7447E-03  2.1700E-03   53.514
    20    1   0.9757   0.0000   0.2502  0.05003   1.4306E-03  1.2177E-03  1.8786E-03   40.404
    21    1   1.0257   0.0000   0.2502  0.05003   1.4281E-03  5.7192E-04  1.5384E-03   21.825
    22    1   1.0757   0.0000   0.2502  0.05003   1.2838E-03 -1.2844E-04  1.2902E-03   -5.713
    23    1   1.1258   0.0000   0.2502  0.05003   1.0125E-03 -8.1417E-04  1.2992E-03  -38.803
    24    1   1.1758   0.0000   0.2502  0.05003   6.4149E-04 -1.4176E-03  1.5560E-03  -65.653
    25    1   1.2258   0.0000   0.2502  0.05003   2.0782E-04 -1.8795E-03  1.8910E-03  -83.690
    26    1   1.2759   0.0000   0.2502  0.05003  -2.4543E-04 -2.1546E-03  2.1685E-03  -96.499
    27    1   1.3259   0.0000   0.2502  0.05003  -6.7334E-04 -2.2160E-03  2.3161E-03 -106.901
    28    1   1.3759   0.0000   0.2502  0.05003  -1.0336E-03 -2.0583E-03  2.3033E-03 -116.665
    29    1   1.4260   0.0000   0.2502  0.05003  -1.2909E-03 -1.6973E-03  2.1324E-03 -127.254
    30    1   1.4760   0.0000   0.2502  0.05003  -1.4197E-03 -1.1691E-03  1.8392E-03 -140.529
    31    1   1.5260   0.0000   0.2502  0.05003  -1.4078E-03 -5.2617E-04  1.5029E-03 -159.507
    32    1   1.5761   0.0000   0.2502  0.05003  -1.2565E-03  1.6792E-04  1.2676E-03  172.388
    33    1   1.6261   0.0000   0.2502  0.05003  -9.8090E-04  8.4449E-04  1.2944E-03  139.274
    34    1   1.6761   0.0000   0.2502  0.05003  -6.0858E-04  1.4368E-03  1.5603E-03  112.956
    35    1   1.7262   0.0000   0.2502  0.05003  -1.7642E-04  1.8863E-03  1.8945E-03   95.343
    36    1   1.7762   0.0000   0.2502  0.05003   2.7277E-04  2.1489E-03  2.1661E-03   82.766
    37    1   1.8262   0.0000   0.2502  0.05003   6.9456E-04  2.1987E-03  2.3058E-03   72.469
    38    1   1.8763   0.0000   0.2502  0.05003   1.0473E-03  2.0312E-03  2.2853E-03   62.724
    39    1   1.9263   0.0000   0.2502  0.05003   1.2961E-03  1.6629E-03  2.1084E-03   52.065
    40    1   1.9763   0.0000   0.2502  0.05003   1.4166E-03  1.1304E-03  1.8124E-03   38.589
    41    1   2.0264   0.0000   0.2502  0.05003   1.3969E-03  4.8654E-04  1.4792E-03   19.203
    42    1   2.0764   0.0000   0.2502  0.05003   1.2390E-03 -2.0510E-04  1.2559E-03   -9.399
    43    1   2.1264   0.0000   0.2502  0.05003   9.5865E-04 -8.7612E-04  1.2987E-03  -42.424
    44    1   2.1765   0.0000   0.2502  0.05003   5.8361E-04 -1.4602E-03  1.5725E-03  -68.215
    45    1   2.2265   0.0000   0.2502  0.05003   1.5096E-04 -1.8997E-03  1.9057E-03  -85.456
    46    1   2.2765   0.0000   0.2502  0.05003  -2.9650E-04 -2.1512E-03  2.1716E-03  -97.847
    47    1   2.3266   0.0000   0.2502  0.05003  -7.1456E-04 -2.1900E-03  2.3036E-03 -108.071
    48    1   2.3766   0.0000   0.2502  0.05003  -1.0619E-03 -2.0121E-03  2.2751E-03 -117.823
    49    1   2.4266   0.0000   0.2502  0.05003  -1.3042E-03 -1.6353E-03  2.0917E-03 -128.574
    50    1   2.4767   0.0000   0.2502  0.05003  -1.4176E-03 -1.0968E-03  1.7924E-03 -142.271
    51    1   2.5267   0.0000   0.2502  0.05003  -1.3909E-03 -4.4989E-04  1.4618E-03 -162.076
    52    1   2.5767   0.0000   0.2502  0.05003  -1.2267E-03  2.4156E-04  1.2502E-03  168.859
    53    1   2.6268   0.0000   0.2502  0.05003  -9.4120E-04  9.0919E-04  1.3086E-03  135.991
    54    1   2.6768   0.0000   0.2502  0.05003  -5.6266E-04  1.4870E-03  1.5899E-03  110.726
    55    1   2.7268   0.0000   0.2502  0.05003  -1.2847E-04  1.9179E-03  1.9222E-03   93.832
    56    1   2.7769   0.0000   0.2502  0.05003   3.1848E-04  2.1592E-03  2.1825E-03   81.609
    57    1   2.8269   0.0000   0.2502  0.05003   7.3405E-04  2.1870E-03  2.3069E-03   71.446
    58    1   2.8769   0.0000   0.2502  0.05003   1.0772E-03  1.9985E-03  2.2703E-03   61.677
    59    1   2.9270   0.0000   0.2502  0.05003   1.3139E-03  1.6124E-03  2.0799E-03   50.824
    60    1   2.9770   0.0000   0.2502  0.05003   1.4209E-03  1.0665E-03  1.7766E-03   36.893
    61    1   3.0270   0.0000   0.2502  0.05003   1.3875E-03  4.1496E-04  1.4482E-03   16.651
    62    1   3.0771   0.0000   0.2502  0.05003   1.2170E-03 -2.7801E-04  1.2483E-03  -12.868
    63    1   3.1271   0.0000   0.2502  0.05003   9.2616E-04 -9.4389E-04  1.3224E-03  -45.543
    64    1   3.1771   0.0000   0.2502  0.05003   5.4376E-04 -1.5168E-03  1.6113E-03  -70.278
    65    1   3.2272   0.0000   0.2502  0.05003   1.0751E-04 -1.9401E-03  1.9431E-03  -86.828
    66    1   3.2772   0.0000   0.2502  0.05003  -3.3948E-04 -2.1718E-03  2.1982E-03  -98.884
    67    1   3.3272   0.0000   0.2502  0.05003  -7.5307E-04 -2.1889E-03  2.3148E-03 -108.985
    68    1   3.3773   0.0000   0.2502  0.05003  -1.0924E-03 -1.9894E-03  2.2696E-03 -118.771
    69    1   3.4273   0.0000   0.2502  0.05003  -1.3239E-03 -1.5930E-03  2.0713E-03 -129.728
    70    1   3.4773   0.0000   0.2502  0.05003  -1.4246E-03 -1.0386E-03  1.7630E-03 -143.907
    71    1   3.5274   0.0000   0.2502  0.05003  -1.3847E-03 -3.8090E-04  1.4361E-03 -164.619
    72    1   3.5774   0.0000   0.2502  0.05003  -1.2079E-03  3.1519E-04  1.2484E-03  165.376
    73    1   3.6274   0.0000   0.2502  0.05003  -9.1179E-04  9.8087E-04  1.3392E-03  132.910
    74    1   3.6775   0.0000   0.2502  0.05003  -5.2554E-04  1.5503E-03  1.6369E-03  108.727
    75    1   3.7275   0.0000   0.2502  0.05003  -8.7330E-05  1.9670E-03  1.9689E-03   92.542
    76    1   3.7775   0.0000   0.2502  0.05003   3.5955E-04  2.1896E-03  2.2190E-03   80.675
    77    1   3.8276   0.0000   0.2502  0.05003   7.7092E-04  2.1959E-03  2.3273E-03   70.655
    78    1   3.8776   0.0000   0.2502  0.05003   1.1061E-03  1.9848E-03  2.2722E-03   60.869
    79    1   3.9276   0.0000   0.2502  0.05003   1.3321E-03  1.5769E-03  2.0642E-03   49.812
    80    1   3.9777   0.0000   0.2502  0.05003   1.4264E-03  1.0123E-03  1.7491E-03   35.363
    81    1   4.0277   0.0000   0.2502  0.05003   1.3798E-03  3.4645E-04  1.4226E-03   14.095
    82    1   4.0777   0.0000   0.2502  0.05003   1.1970E-03 -3.5492E-04  1.2485E-03  -16.516
    83    1   4.1278   0.0000   0.2502  0.05003   8.9603E-04 -1.0225E-03  1.3596E-03  -48.772
    84    1   4.1778   0.0000   0.2502  0.05003   5.0685E-04 -1.5902E-03  1.6691E-03  -72.321
    85    1   4.2278   0.0000   0.2502  0.05003   6.8001E-05 -2.0017E-03  2.0028E-03  -88.054
    86    1   4.2779   0.0000   0.2502  0.05003  -3.7704E-04 -2.2158E-03  2.2476E-03  -99.657
    87    1   4.3279   0.0000   0.2502  0.05003  -7.8421E-04 -2.2108E-03  2.3458E-03 -109.530
    88    1   4.3779   0.0000   0.2502  0.05003  -1.1132E-03 -1.9866E-03  2.2773E-03 -119.264
    89    1   4.4280   0.0000   0.2502  0.05003  -1.3316E-03 -1.5647E-03  2.0546E-03 -130.400
    90    1   4.4780   0.0000   0.2502  0.05003  -1.4180E-03 -9.8599E-04  1.7271E-03 -145.188
    91    1   4.5280   0.0000   0.2502  0.05003  -1.3642E-03 -3.0720E-04  1.3983E-03 -167.309
    92    1   4.5781   0.0000   0.2502  0.05003  -1.1759E-03  4.0502E-04  1.2437E-03  160.995
    93    1   4.6281   0.0000   0.2502  0.05003  -8.7256E-04  1.0804E-03  1.3888E-03  128.924
    94    1   4.6781   0.0000   0.2502  0.05003  -4.8495E-04  1.6521E-03  1.7218E-03  106.359
    95    1   4.7282   0.0000   0.2502  0.05003  -5.2434E-05  2.0628E-03  2.0635E-03   91.456
    96    1   4.7782   0.0000   0.2502  0.05003   3.8110E-04  2.2708E-03  2.3026E-03   80.473
    97    1   4.8282   0.0000   0.2502  0.05003   7.7163E-04  2.2537E-03  2.3822E-03   71.100
    98    1   4.8783   0.0000   0.2502  0.05003   1.0795E-03  2.0105E-03  2.2819E-03   61.767
    99    1   4.9283   0.0000   0.2502  0.05003   1.2735E-03  1.5612E-03  2.0147E-03   50.795
   100    1   4.9783   0.0000   0.2502  0.05003   1.3341E-03  9.4465E-04  1.6347E-03   35.302
   101    2   0.0000   0.0000   0.0417  0.08339   5.7740E-04  1.4307E-04  5.9487E-04   13.917
   102    2   0.0000   0.0000   0.1251  0.08339   1.3965E-03  4.2296E-04  1.4591E-03   16.850
   103    2   0.0000   0.0000   0.2085  0.08339   1.7932E-03  6.8591E-04  1.9199E-03   20.932
   104    3   5.0033   0.0000   0.2085  0.08339   1.1954E-03  7.3514E-05  1.1977E-03    3.519
   105    3   5.0033   0.0000   0.1251  0.08339   7.2965E-04 -3.5465E-04  8.1128E-04  -25.922
   106    3   5.0033   0.0000   0.0417  0.08339   2.5204E-04 -2.0258E-04  3.2337E-04  -38.791



                                        - - - POWER BUDGET - - -

                                           INPUT POWER   = 8.8995E-04 WATTS
                                           RADIATED POWER= 3.2918E-04 WATTS
                                           STRUCTURE LOSS= 5.6077E-04 WATTS
                                           NETWORK LOSS  = 0.0000E+00 WATTS
                                           EFFICIENCY    =  36.99 PERCENT



                                                - - - RADIATION PATTERNS - - -

  - - ANGLES - -           - POWER GAINS -       - - - POLARIZATION - - -    - - - E(THETA) - - -    - - - E(PHI) - - -
  THETA     PHI        VERT.   HOR.    TOTAL      AXIAL     TILT   SENSE     MAGNITUDE    PHASE      MAGNITUDE    PHASE 
 DEGREES  DEGREES       DB      DB      DB        RATIO     DEG.              VOLTS/M    DEGREES      VOLTS/M    DEGREES
  -90.00     0.00    -999.99 -999.99 -999.99    0.00000     0.00            5.10004E-12  -166.57    0.00000E+00     0.00
  -89.00     0.00     -23.17 -999.99  -23.17    0.00000     0.00  LINEAR    1.60278E-02    16.65    0.00000E+00     0.00
  -88.00     0.00     -17.89 -999.99  -17.89    0.00000     0.00  LINEAR    2.94669E-02    20.19    0.00000E+00     0.00
  -87.00     0.00     -15.09 -999.99  -15.09    0.00000     0.00  LINEAR    4.06498E-02    24.16    0.00000E+00     0.00
  -86.00     0.00     -13.31 -999.99  -13.31    0.00000     0.00  LINEAR    4.98780E-02    28.63    0.00000E+00     0.00
  -85.00     0.00     -12.09 -999.99  -12.09    0.00000     0.00  LINEAR    5.74335E-02    33.71    0.00000E+00     0.00
  -84.00     0.00     -11.20 -999.99  -11.20    0.00000     0.00  LINEAR    6.35931E-02    39.46    0.00000E+00     0.00
  -83.00     0.00     -10.54 -999.99  -10.54    0.00000     0.00  LINEAR    6.86423E-02    45.96    0.00000E+00     0.00
  -82.00     0.00     -10.02 -999.99  -10.02    0.00000     0.00  LINEAR    7.28876E-02    53.27    0.00000E+00     0.00
  -81.00     0.00      -9.58 -999.99   -9.58    0.00000     0.00  LINEAR    7.66644E-02    61.41    0.00000E+00     0.00
  -80.00     0.00      -9.17 -999.99   -9.17    0.00000     0.00  LINEAR    8.03370E-02    70.36    0.00000E+00     0.00
  -79.00     0.00      -8.76 -999.99   -8.76    0.00000     0.00  LINEAR    8.42862E-02    80.06    0.00000E+00     0.00
  -78.00     0.00      -8.30 -999.99   -8.30    0.00000     0.00  LINEAR    8.88832E-02    90.36    0.00000E+00     0.00
  -77.00     0.00      -7.77 -999.99   -7.77    0.00000     0.00  LINEAR    9.44514E-02   101.06    0.00000E+00     0.00
  -76.00     0.00      -7.17 -999.99   -7.17    0.00000     0.00  LINEAR    1.01227E-01   111.94    0.00000E+00     0.00
  -75.00     0.00      -6.50 -999.99   -6.50    0.00000     0.00  LINEAR    1.09328E-01   122.79    0.00000E+00     0.00
  -74.00     0.00      -5.78 -999.99   -5.78    0.00000     0.00  LINEAR    1.18747E-01   133.44    0.00000E+00     0.00
  -73.00     0.00      -5.04 -999.99   -5.04    0.00000     0.00  LINEAR    1.29358E-01   143.80    0.00000E+00     0.00
  -72.00     0.00      -4.29 -999.99   -4.29    0.00000     0.00  LINEAR    1.40932E-01   153.84    0.00000E+00     0.00
  -71.00     0.00      -3.57 -999.99   -3.57    0.00000     0.00  LINEAR    1.53162E-01   163.56    0.00000E+00     0.00
  -70.00     0.00      -2.89 -999.99   -2.89    0.00000     0.00  LINEAR    1.65682E-01   173.01    0.00000E+00     0.00
  -69.00     0.00      -2.26 -999.99   -2.26    0.00000     0.00  LINEAR    1.78075E-01  -177.77    0.00000E+00     0.00
  -68.00     0.00      -1.70 -999.99   -1.70    0.00000     0.00  LINEAR    1.89892E-01  -168.72    0.00000E+00     0.00
  -67.00     0.00      -1.22 -999.99   -1.22    0.00000     0.00  LINEAR    2.00658E-01  -159.78    0.00000E+00     0.00
  -66.00     0.00      -0.83 -999.99   -0.83    0.00000     0.00  LINEAR    2.09880E-01  -150.91    0.00000E+00     0.00
  -65.00     0.00      -0.54 -999.99   -0.54    0.00000     0.00  LINEAR    2.17060E-01  -142.07    0.00000E+00     0.00
  -64.00     0.00      -0.36 -999.99   -0.36    0.00000     0.00  LINEAR    2.21707E-01  -133.20    0.00000E+00     0.00
  -63.00     0.00      -0.29 -999.99   -0.29    0.00000     0.00  LINEAR    2.23353E-01  -124.30    0.00000E+00     0.00
  -62.00     0.00      -0.36 -999.99   -0.36    0.00000     0.00  LINEAR    2.21570E-01  -115.31    0.00000E+00     0.00
  -61.00     0.00      -0.58 -999.99   -0.58    0.00000     0.00  LINEAR    2.15984E-01  -106.24    0.00000E+00     0.00
  -60.00     0.00      -0.98 -999.99   -0.98    0.00000     0.00  LINEAR    2.06304E-01   -97.05    0.00000E+00     0.00
  -59.00     0.00      -1.59 -999.99   -1.59    0.00000     0.00  LINEAR    1.92337E-01   -87.73    0.00000E+00     0.00
  -58.00     0.00      -2.46 -999.99   -2.46    0.00000     0.00  LINEAR    1.74011E-01   -78.28    0.00000E+00     0.00
  -57.00     0.00      -3.67 -999.99   -3.67    0.00000     0.00  LINEAR    1.51393E-01   -68.66    0.00000E+00     0.00
  -56.00     0.00      -5.35 -999.99   -5.35    0.00000     0.00  LINEAR    1.24707E-01   -58.89    0.00000E+00     0.00
  -55.00     0.00      -7.78 -999.99   -7.78    0.00000     0.00  LINEAR    9.43479E-02   -48.94    0.00000E+00     0.00
  -54.00     0.00     -11.58 -999.99  -11.58    0.00000     0.00  LINEAR    6.08861E-02   -38.78    0.00000E+00     0.00
  -53.00     0.00     -19.29 -999.99  -19.29    0.00000     0.00  LINEAR    2.50693E-02   -28.24    0.00000E+00     0.00
  -52.00     0.00     -25.55 -999.99  -25.55    0.00000     0.00  LINEAR    1.21894E-02   160.75    0.00000E+00     0.00
  -51.00     0.00     -13.33 -999.99  -13.33    0.00000     0.00  LINEAR    4.98148E-02   172.10    0.00000E+00     0.00
  -50.00     0.00      -8.52 -999.99   -8.52    0.00000     0.00  LINEAR    8.66188E-02  -177.01    0.00000E+00     0.00
  -49.00     0.00      -5.59 -999.99   -5.59    0.00000     0.00  LINEAR    1.21320E-01  -166.00    0.00000E+00     0.00
  -48.00     0.00      -3.60 -999.99   -3.60    0.00000     0.00  LINEAR    1.52596E-01  -154.83    0.00000E+00     0.00
  -47.00     0.00      -2.21 -999.99   -2.21    0.00000     0.00  LINEAR    1.79141E-01  -143.48    0.00000E+00     0.00
  -46.00     0.00      -1.26 -999.99   -1.26    0.00000     0.00  LINEAR    1.99726E-01  -131.97    0.00000E+00     0.00
  -45.00     0.00      -0.69 -999.99   -0.69    0.00000     0.00  LINEAR    2.13263E-01  -120.28    0.00000E+00     0.00
  -44.00     0.00      -0.47 -999.99   -0.47    0.00000     0.00  LINEAR    2.18880E-01  -108.42    0.00000E+00     0.00
  -43.00     0.00      -0.58 -999.99   -0.58    0.00000     0.00  LINEAR    2.15979E-01   -96.40    0.00000E+00     0.00
  -42.00     0.00      -1.07 -999.99   -1.07    0.00000     0.00  LINEAR    2.04298E-01   -84.21    0.00000E+00     0.00
  -41.00     0.00      -1.98 -999.99   -1.98    0.00000     0.00  LINEAR    1.83960E-01   -71.86    0.00000E+00     0.00
  -40.00     0.00      -3.44 -999.99   -3.44    0.00000     0.00  LINEAR    1.55499E-01   -59.37    0.00000E+00     0.00
  -39.00     0.00      -5.70 -999.99   -5.70    0.00000     0.00  LINEAR    1.19876E-01   -46.77    0.00000E+00     0.00
  -38.00     0.00      -9.38 -999.99   -9.38    0.00000     0.00  LINEAR    7.84671E-02   -34.16    0.00000E+00     0.00
  -37.00     0.00     -16.89 -999.99  -16.89    0.00000     0.00  LINEAR    3.30314E-02   -22.21    0.00000E+00     0.00
  -36.00     0.00     -24.08 -999.99  -24.08    0.00000     0.00  LINEAR    1.44412E-02   177.19    0.00000E+00     0.00
  -35.00     0.00     -11.50 -999.99  -11.50    0.00000     0.00  LINEAR    6.14974E-02  -172.76    0.00000E+00     0.00
  -34.00     0.00      -6.78 -999.99   -6.78    0.00000     0.00  LINEAR    1.05845E-01  -159.68    0.00000E+00     0.00
  -33.00     0.00      -4.04 -999.99   -4.04    0.00000     0.00  LINEAR    1.45063E-01  -146.19    0.00000E+00     0.00
  -32.00     0.00      -2.32 -999.99   -2.32    0.00000     0.00  LINEAR    1.76904E-01  -132.48    0.00000E+00     0.00
  -31.00     0.00      -1.28 -999.99   -1.28    0.00000     0.00  LINEAR    1.99420E-01  -118.59    0.00000E+00     0.00
  -30.00     0.00      -0.78 -999.99   -0.78    0.00000     0.00  LINEAR    2.11094E-01  -104.55    0.00000E+00     0.00
  -29.00     0.00      -0.79 -999.99   -0.79    0.00000     0.00  LINEAR    2.10966E-01   -90.37    0.00000E+00     0.00
  -28.00     0.00      -1.31 -999.99   -1.31    0.00000     0.00  LINEAR    1.98725E-01   -76.05    0.00000E+00     0.00
  -27.00     0.00      -2.42 -999.99   -2.42    0.00000     0.00  LINEAR    1.74773E-01   -61.60    0.00000E+00     0.00
  -26.00     0.00      -4.33 -999.99   -4.33    0.00000     0.00  LINEAR    1.40243E-01   -47.04    0.00000E+00     0.00
  -25.00     0.00      -7.54 -999.99   -7.54    0.00000     0.00  LINEAR    9.69662E-02   -32.36    0.00000E+00     0.00
  -24.00     0.00     -13.76 -999.99  -13.76    0.00000     0.00  LINEAR    4.74017E-02   -17.59    0.00000E+00     0.00
  -23.00     0.00     -32.47 -999.99  -32.47    0.00000     0.00  LINEAR    5.49695E-03   177.91    0.00000E+00     0.00
  -22.00     0.00     -11.94 -999.99  -11.94    0.00000     0.00  LINEAR    5.84462E-02  -167.55    0.00000E+00     0.00
  -21.00     0.00      -6.60 -999.99   -6.60    0.00000     0.00  LINEAR    1.08039E-01  -152.46    0.00000E+00     0.00
  -20.00     0.00      -3.69 -999.99   -3.69    0.00000     0.00  LINEAR    1.50967E-01  -137.25    0.00000E+00     0.00
  -19.00     0.00      -1.96 -999.99   -1.96    0.00000     0.00  LINEAR    1.84254E-01  -121.95    0.00000E+00     0.00
  -18.00     0.00      -1.02 -999.99   -1.02    0.00000     0.00  LINEAR    2.05474E-01  -106.56    0.00000E+00     0.00
  -17.00     0.00      -0.71 -999.99   -0.71    0.00000     0.00  LINEAR    2.12951E-01   -91.07    0.00000E+00     0.00
  -16.00     0.00      -1.00 -999.99   -1.00    0.00000     0.00  LINEAR    2.05903E-01   -75.50    0.00000E+00     0.00
  -15.00     0.00      -1.95 -999.99   -1.95    0.00000     0.00  LINEAR    1.84537E-01   -59.83    0.00000E+00     0.00
  -14.00     0.00      -3.75 -999.99   -3.75    0.00000     0.00  LINEAR    1.50077E-01   -44.05    0.00000E+00     0.00
  -13.00     0.00      -6.87 -999.99   -6.87    0.00000     0.00  LINEAR    1.04706E-01   -28.08    0.00000E+00     0.00
  -12.00     0.00     -13.04 -999.99  -13.04    0.00000     0.00  LINEAR    5.14538E-02   -11.51    0.00000E+00     0.00
  -11.00     0.00     -31.43 -999.99  -31.43    0.00000     0.00  LINEAR    6.19337E-03   170.15    0.00000E+00     0.00
  -10.00     0.00     -11.19 -999.99  -11.19    0.00000     0.00  LINEAR    6.36843E-02  -162.49    0.00000E+00     0.00
   -9.00     0.00      -5.89 -999.99   -5.89    0.00000     0.00  LINEAR    1.17278E-01  -145.98    0.00000E+00     0.00
   -8.00     0.00      -3.04 -999.99   -3.04    0.00000     0.00  LINEAR    1.62871E-01  -129.80    0.00000E+00     0.00
   -7.00     0.00      -1.38 -999.99   -1.38    0.00000     0.00  LINEAR    1.96988E-01  -113.68    0.00000E+00     0.00
   -6.00     0.00      -0.55 -999.99   -0.55    0.00000     0.00  LINEAR    2.16932E-01   -97.55    0.00000E+00     0.00
   -5.00     0.00      -0.38 -999.99   -0.38    0.00000     0.00  LINEAR    2.21007E-01   -81.40    0.00000E+00     0.00
   -4.00     0.00      -0.88 -999.99   -0.88    0.00000     0.00  LINEAR    2.08672E-01   -65.21    0.00000E+00     0.00
   -3.00     0.00      -2.14 -999.99   -2.14    0.00000     0.00  LINEAR    1.80605E-01   -48.93    0.00000E+00     0.00
   -2.00     0.00      -4.43 -999.99   -4.43    0.00000     0.00  LINEAR    1.38679E-01   -32.49    0.00000E+00     0.00
   -1.00     0.00      -8.60 -999.99   -8.60    0.00000     0.00  LINEAR    8.58454E-02   -15.54    0.00000E+00     0.00
    0.00     0.00     -18.97 -999.99  -18.97    0.00000     0.00  LINEAR    2.60199E-02     5.58    0.00000E+00     0.00
  -90.00     1.00    -999.99 -999.99 -999.99    0.00000     0.00            5.08848E-12  -166.35    1.50640E-13   120.87
  -89.00     1.00     -23.19  -53.06  -23.19    0.03116     0.45  RIGHT     1.59914E-02    16.86    5.13760E-04   -59.07
  -88.00     1.00     -17.91  -47.06  -17.90    0.03421     0.38  RIGHT     2.93999E-02    20.41    1.02433E-03   -58.71
  -87.00     1.00     -15.11  -43.57  -15.10    0.03742     0.29  RIGHT     4.05574E-02    24.38    1.53110E-03   -58.04
  -86.00     1.00     -13.33  -41.11  -13.33    0.04076     0.17  RIGHT     4.97647E-02    28.86    2.03335E-03   -57.06
  -85.00     1.00     -12.11  -39.21  -12.10    0.04415     0.01  RIGHT     5.73039E-02    33.94    2.53023E-03   -55.77
  -84.00     1.00     -11.22  -37.67  -11.21    0.04750    -0.18  RIGHT     6.34516E-02    39.70    3.02069E-03   -54.18
  -83.00     1.00     -10.56  -36.38  -10.55    0.05059    -0.43  RIGHT     6.84936E-02    46.21    3.50344E-03   -52.28
  -82.00     1.00     -10.04  -35.28  -10.02    0.05313    -0.74  RIGHT     7.27366E-02    53.53    3.97690E-03   -50.07
  -81.00     1.00      -9.60  -34.33   -9.58    0.05476    -1.10  RIGHT     7.65166E-02    61.68    4.43919E-03   -47.56
  -80.00     1.00      -9.19  -33.49   -9.17    0.05503    -1.50  RIGHT     8.01980E-02    70.64    4.88808E-03   -44.74
  -79.00     1.00      -8.77  -32.75   -8.75    0.05358    -1.92  RIGHT     8.41617E-02    80.35    5.32096E-03   -41.61
  -78.00     1.00      -8.31  -32.10   -8.29    0.05024    -2.33  RIGHT     8.87779E-02    90.65    5.73485E-03   -38.18
  -77.00     1.00      -7.78  -31.53   -7.76    0.04516    -2.67  RIGHT     9.43685E-02   101.35    6.12637E-03   -34.45
  -76.00     1.00      -7.17  -31.02   -7.15    0.03884    -2.92  RIGHT     1.01167E-01   112.23    6.49177E-03   -30.41
  -75.00     1.00      -6.50  -30.59   -6.48    0.03195    -3.07  RIGHT     1.09292E-01   123.06    6.82691E-03   -26.07
  -74.00     1.00      -5.78  -30.21   -5.77    0.02516    -3.12  RIGHT     1.18731E-01   133.70    7.12734E-03   -21.44
  -73.00     1.00      -5.04  -29.90   -5.02    0.01896    -3.08  RIGHT     1.29356E-01   144.05    7.38831E-03   -16.50
  -72.00     1.00      -4.29  -29.65   -4.28    0.01362    -2.99  RIGHT     1.40939E-01   154.08    7.60487E-03   -11.26
  -71.00     1.00      -3.57  -29.46   -3.56    0.00921    -2.86  RIGHT     1.53173E-01   163.79    7.77193E-03    -5.73
  -70.00     1.00      -2.89  -29.34   -2.88    0.00569    -2.70  RIGHT     1.65689E-01   173.22    7.88436E-03     0.11
  -69.00     1.00      -2.26  -29.28   -2.25    0.00295    -2.55  RIGHT     1.78072E-01  -177.57    7.93717E-03     6.23
  -68.00     1.00      -1.70  -29.29   -1.70    0.00086    -2.39  RIGHT     1.89874E-01  -168.53    7.92557E-03    12.65
  -67.00     1.00      -1.22  -29.38   -1.22    0.00070    -2.24  LEFT      2.00618E-01  -159.60    7.84523E-03    19.37
  -66.00     1.00      -0.84  -29.55   -0.83    0.00185    -2.10  LEFT      2.09813E-01  -150.74    7.69236E-03    26.37
  -65.00     1.00      -0.54  -29.81   -0.54    0.00266    -1.96  LEFT      2.16962E-01  -141.90    7.46398E-03    33.67
  -64.00     1.00      -0.36  -30.18   -0.36    0.00320    -1.84  LEFT      2.21575E-01  -133.04    7.15812E-03    41.26
  -63.00     1.00      -0.30  -30.66   -0.29    0.00355    -1.73  LEFT      2.23184E-01  -124.14    6.77397E-03    49.14
  -62.00     1.00      -0.37  -31.27   -0.37    0.00373    -1.62  LEFT      2.21361E-01  -115.16    6.31215E-03    57.32
  -61.00     1.00      -0.59  -32.04   -0.59    0.00377    -1.52  LEFT      2.15736E-01  -106.09    5.77488E-03    65.80
  -60.00     1.00      -0.99  -33.01   -0.99    0.00371    -1.42  LEFT      2.06018E-01   -96.90    5.16618E-03    74.59
  -59.00     1.00      -1.61  -34.22   -1.60    0.00353    -1.32  LEFT      1.92015E-01   -87.59    4.49198E-03    83.72
  -58.00     1.00      -2.48  -35.77   -2.48    0.00326    -1.23  LEFT      1.73657E-01   -78.14    3.76029E-03    93.21
  -57.00     1.00      -3.69  -37.78   -3.69    0.00285    -1.12  LEFT      1.51011E-01   -68.53    2.98125E-03   103.17
  -56.00     1.00      -5.38  -40.55   -5.38    0.00225    -0.99  LEFT      1.24305E-01   -58.76    2.16726E-03   113.81
  -55.00     1.00      -7.82  -44.77   -7.81    0.00129    -0.81  LEFT      9.39334E-02   -48.81    1.33341E-03   125.97
  -54.00     1.00     -11.64  -53.24  -11.64    0.00066    -0.48  RIGHT     6.04677E-02   -38.66    5.03060E-04   145.87
  -53.00     1.00     -19.43  -55.90  -19.43    0.00805     0.73  RIGHT     2.46567E-02   -28.13    3.70376E-04   -60.53
  -52.00     1.00     -25.27  -46.04  -25.24    0.02535    -5.03  LEFT      1.25858E-02   160.94    1.15190E-03   -35.27
  -51.00     1.00     -13.26  -41.71  -13.25    0.00910    -2.10  LEFT      5.01848E-02   172.23    1.89747E-03   -21.72
  -50.00     1.00      -8.49  -39.06   -8.48    0.00647    -1.66  LEFT      8.69522E-02  -176.89    2.57499E-03    -9.51
  -49.00     1.00      -5.57  -37.27   -5.57    0.00527    -1.46  LEFT      1.21607E-01  -165.88    3.16405E-03     2.43
  -48.00     1.00      -3.59  -36.03   -3.59    0.00451    -1.34  LEFT      1.52829E-01  -154.71    3.64635E-03    14.37
  -47.00     1.00      -2.20  -35.22   -2.20    0.00396    -1.26  LEFT      1.79313E-01  -143.37    4.00580E-03    26.42
  -46.00     1.00      -1.26  -34.75   -1.26    0.00350    -1.20  LEFT      1.99830E-01  -131.86    4.22914E-03    38.63
  -45.00     1.00      -0.69  -34.59   -0.69    0.00309    -1.14  LEFT      2.13299E-01  -120.18    4.30672E-03    51.02
  -44.00     1.00      -0.47  -34.74   -0.47    0.00271    -1.10  LEFT      2.18846E-01  -108.32    4.23325E-03    63.62
  -43.00     1.00      -0.59  -35.21   -0.59    0.00235    -1.06  LEFT      2.15879E-01   -96.30    4.00845E-03    76.45
  -42.00     1.00      -1.07  -36.06   -1.07    0.00197    -1.01  LEFT      2.04137E-01   -84.11    3.63754E-03    89.55
  -41.00     1.00      -1.99  -37.36   -1.99    0.00156    -0.97  LEFT      1.83746E-01   -71.76    3.13164E-03   102.99
  -40.00     1.00      -3.45  -39.29   -3.45    0.00107    -0.92  LEFT      1.55242E-01   -59.28    2.50786E-03   116.93
  -39.00     1.00      -5.72  -42.22   -5.72    0.00039    -0.86  LEFT      1.19589E-01   -46.68    1.78949E-03   131.82
  -38.00     1.00      -9.41  -47.21   -9.41    0.00082    -0.74  RIGHT     7.81639E-02   -34.08    1.00716E-03   149.57
  -37.00     1.00     -16.97  -59.70  -16.97    0.00479    -0.32  RIGHT     3.27267E-02   -22.15    2.39066E-04  -161.22
  -36.00     1.00     -23.91  -50.64  -23.90    0.01898    -2.40  LEFT      1.47330E-02   177.21    6.78259E-04   -27.18
  -35.00     1.00     -11.46  -44.02  -11.46    0.00519    -1.32  LEFT      6.17631E-02  -172.67    1.45474E-03    -5.42
  -34.00     1.00      -6.76  -40.56   -6.76    0.00336    -1.15  LEFT      1.06072E-01  -159.60    2.16556E-03    10.92
  -33.00     1.00      -4.03  -38.43   -4.03    0.00255    -1.08  LEFT      1.45241E-01  -146.11    2.76868E-03    26.19
  -32.00     1.00      -2.31  -37.08   -2.31    0.00204    -1.04  LEFT      1.77025E-01  -132.40    3.23122E-03    41.17
  -31.00     1.00      -1.27  -36.32   -1.27    0.00167    -1.01  LEFT      1.99480E-01  -118.52    3.52680E-03    56.07
  -30.00     1.00      -0.78  -36.06   -0.78    0.00135    -0.98  LEFT      2.11093E-01  -104.48    3.63676E-03    71.02
  -29.00     1.00      -0.79  -36.26   -0.79    0.00107    -0.96  LEFT      2.10907E-01   -90.30    3.55156E-03    86.06
  -28.00     1.00      -1.31  -36.98   -1.31    0.00079    -0.94  LEFT      1.98615E-01   -75.98    3.27191E-03   101.28
  -27.00     1.00      -2.43  -38.30   -2.43    0.00048    -0.92  LEFT      1.74621E-01   -61.54    2.80939E-03   116.74
  -26.00     1.00      -4.35  -40.48   -4.34    0.00010    -0.89  LEFT      1.40060E-01   -46.98    2.18657E-03   132.67
  -25.00     1.00      -7.56  -44.12   -7.56    0.00052    -0.85  RIGHT     9.67660E-02   -32.30    1.43674E-03   149.72
  -24.00     1.00     -13.79  -51.62  -13.79    0.00222    -0.73  RIGHT     4.71978E-02   -17.53    6.06538E-04   172.40
  -23.00     1.00     -32.17  -57.29  -32.16    0.02588    -2.81  LEFT      5.69096E-03   177.98    3.15471E-04   -29.92
  -22.00     1.00     -11.91  -46.00  -11.91    0.00294    -1.12  LEFT      5.86181E-02  -167.49    1.15756E-03     3.95
  -21.00     1.00      -6.59  -41.47   -6.59    0.00169    -1.03  LEFT      1.08179E-01  -152.40    1.95127E-03    22.21
  -20.00     1.00      -3.69  -38.88   -3.69    0.00119    -0.99  LEFT      1.51067E-01  -137.20    2.62864E-03    38.88
  -19.00     1.00      -1.96  -37.33   -1.96    0.00088    -0.98  LEFT      1.84311E-01  -121.90    3.14276E-03    55.13
  -18.00     1.00      -1.02  -36.50   -1.02    0.00066    -0.96  LEFT      2.05487E-01  -106.51    3.45672E-03    71.23
  -17.00     1.00      -0.71  -36.28   -0.71    0.00048    -0.95  LEFT      2.12923E-01   -91.03    3.54566E-03    87.31
  -16.00     1.00      -1.00  -36.65   -1.00    0.00032    -0.95  LEFT      2.05840E-01   -75.46    3.39887E-03   103.44
  -15.00     1.00      -1.95  -37.67   -1.95    0.00015    -0.94  LEFT      1.84447E-01   -59.80    3.02110E-03   119.68
  -14.00     1.00      -3.75  -39.55   -3.75    0.00005    -0.93  RIGHT     1.49970E-01   -44.02    2.43298E-03   136.14
  -13.00     1.00      -6.88  -42.82   -6.88    0.00034    -0.91  RIGHT     1.04592E-01   -28.05    1.67039E-03   153.18
  -12.00     1.00     -13.06  -49.39  -13.06    0.00113    -0.87  RIGHT     5.13443E-02   -11.48    7.83703E-04   172.77
  -11.00     1.00     -31.30  -61.28  -31.30    0.00818    -1.76  LEFT      6.28740E-03   170.38    1.99413E-04   -24.57
  -10.00     1.00     -11.18  -46.14  -11.18    0.00114    -1.02  LEFT      6.37608E-02  -162.47    1.13922E-03    13.89
   -9.00     1.00      -5.88  -41.13   -5.88    0.00060    -0.99  LEFT      1.17330E-01  -145.96    2.02902E-03    32.05
   -8.00     1.00      -3.03  -38.36   -3.03    0.00038    -0.98  LEFT      1.62897E-01  -129.78    2.78848E-03    48.94
   -7.00     1.00      -1.38  -36.75   -1.38    0.00025    -0.98  LEFT      1.96989E-01  -113.66    3.35940E-03    65.50
   -6.00     1.00      -0.55  -35.92   -0.55    0.00016    -0.98  LEFT      2.16912E-01   -97.54    3.69612E-03    81.92
   -5.00     1.00      -0.39  -35.75   -0.38    0.00009    -0.98  LEFT      2.20972E-01   -81.39    3.76876E-03    98.30
   -4.00     1.00      -0.88  -36.23   -0.88    0.00004    -0.98  LEFT      2.08630E-01   -65.20    3.56586E-03   114.67
   -3.00     1.00      -2.14  -37.46   -2.14    0.00000    -0.98  LINEAR    1.80563E-01   -48.93    3.09575E-03   131.08
   -2.00     1.00      -4.43  -39.72   -4.43    0.00003    -0.99  RIGHT     1.38644E-01   -32.49    2.38658E-03   147.63
   -1.00     1.00      -8.60  -43.84   -8.60    0.00005    -0.99  RIGHT     8.58239E-02   -15.54    1.48491E-03   164.63
    0.00     1.00     -18.97  -54.13  -18.97    0.00000    -1.00  LINEAR    2.60160E-02     5.58    4.54110E-04  -174.42
  -90.00     2.00    -999.99 -999.99 -999.99    0.00000     0.00            5.05373E-12  -165.71    3.01236E-13   121.33
  -89.00     2.00     -23.25  -47.04  -23.24    0.06278     0.89  RIGHT     1.58822E-02    17.51    1.02737E-03   -58.62
  -88.00     2.00     -17.96  -41.04  -17.94    0.06892     0.75  RIGHT     2.91990E-02    21.06    2.04833E-03   -58.25
  -87.00     2.00     -15.17  -37.55  -15.15    0.07537     0.56  RIGHT     4.02802E-02    25.04    3.06163E-03   -57.58
  -86.00     2.00     -13.39  -35.09  -13.36    0.08207     0.32  RIGHT     4.94253E-02    29.54    4.06580E-03   -56.60
  -85.00     2.00     -12.17  -33.19  -12.13    0.08889     0.00  RIGHT     5.69156E-02    34.64    5.05910E-03   -55.32
  -84.00     2.00     -11.28  -31.65  -11.24    0.09557    -0.40  RIGHT     6.30278E-02    40.42    6.03940E-03   -53.72
  -83.00     2.00     -10.62  -30.37  -10.57    0.10170    -0.91  RIGHT     6.80484E-02    46.96    7.00409E-03   -51.82
  -82.00     2.00     -10.09  -29.26  -10.04    0.10667    -1.53  RIGHT     7.22852E-02    54.31    7.95001E-03   -49.62
  -81.00     2.00      -9.65  -28.31   -9.59    0.10972    -2.27  RIGHT     7.60753E-02    62.49    8.87335E-03   -47.10
  -80.00     2.00      -9.23  -27.47   -9.17    0.10996    -3.08  RIGHT     7.97840E-02    71.49    9.76964E-03   -44.28
  -79.00     2.00      -8.81  -26.74   -8.74    0.10668    -3.93  RIGHT     8.37915E-02    81.21    1.06336E-02   -41.16
  -78.00     2.00      -8.34  -26.09   -8.26    0.09962    -4.73  RIGHT     8.84657E-02    91.53    1.14594E-02   -37.73
  -77.00     2.00      -7.80  -25.52   -7.73    0.08917    -5.41  RIGHT     9.41240E-02   102.23    1.22401E-02   -34.00
  -76.00     2.00      -7.19  -25.01   -7.12    0.07638    -5.89  RIGHT     1.00994E-01   113.08    1.29683E-02   -29.97
  -75.00     2.00      -6.51  -24.58   -6.44    0.06261    -6.17  RIGHT     1.09186E-01   123.89    1.36357E-02   -25.63
  -74.00     2.00      -5.78  -24.21   -5.72    0.04916    -6.24  RIGHT     1.18684E-01   134.50    1.42334E-02   -20.99
  -73.00     2.00      -5.04  -23.90   -4.98    0.03695    -6.16  RIGHT     1.29353E-01   144.81    1.47520E-02   -16.06
  -72.00     2.00      -4.29  -23.65   -4.24    0.02646    -5.96  RIGHT     1.40964E-01   154.80    1.51814E-02   -10.82
  -71.00     2.00      -3.57  -23.46   -3.52    0.01783    -5.69  RIGHT     1.53205E-01   164.47    1.55117E-02    -5.29
  -70.00     2.00      -2.89  -23.34   -2.85    0.01094    -5.39  RIGHT     1.65710E-01   173.86    1.57326E-02     0.54
  -69.00     2.00      -2.26  -23.28   -2.23    0.00557    -5.07  RIGHT     1.78064E-01  -176.96    1.58341E-02     6.66
  -68.00     2.00      -1.71  -23.30   -1.68    0.00148    -4.76  RIGHT     1.89817E-01  -167.95    1.58067E-02    13.08
  -67.00     2.00      -1.23  -23.39   -1.20    0.00157    -4.46  LEFT      2.00496E-01  -159.05    1.56419E-02    19.79
  -66.00     2.00      -0.84  -23.56   -0.82    0.00381    -4.18  LEFT      2.09611E-01  -150.21    1.53322E-02    26.80
  -65.00     2.00      -0.56  -23.83   -0.54    0.00539    -3.91  LEFT      2.16667E-01  -141.39    1.48716E-02    34.09
  -64.00     2.00      -0.38  -24.19   -0.36    0.00646    -3.67  LEFT      2.21175E-01  -132.55    1.42563E-02    41.68
  -63.00     2.00      -0.32  -24.68   -0.30    0.00713    -3.44  LEFT      2.22673E-01  -123.66    1.34848E-02    49.56
  -62.00     2.00      -0.39  -25.29   -0.38    0.00747    -3.23  LEFT      2.20733E-01  -114.70    1.25584E-02    57.73
  -61.00     2.00      -0.62  -26.07   -0.61    0.00755    -3.03  LEFT      2.14991E-01  -105.64    1.14817E-02    66.21
  -60.00     2.00      -1.03  -27.05   -1.02    0.00740    -2.83  LEFT      2.05159E-01   -96.47    1.02628E-02    75.00
  -59.00     2.00      -1.65  -28.27   -1.64    0.00705    -2.64  LEFT      1.91048E-01   -87.17    8.91363E-03    84.12
  -58.00     2.00      -2.53  -29.83   -2.52    0.00649    -2.44  LEFT      1.72593E-01   -77.73    7.45029E-03    93.62
  -57.00     2.00      -3.76  -31.87   -3.75    0.00566    -2.23  LEFT      1.49867E-01   -68.13    5.89315E-03   103.58
  -56.00     2.00      -5.47  -34.67   -5.46    0.00445    -1.97  LEFT      1.23100E-01   -58.37    4.26708E-03   114.25
  -55.00     2.00      -7.93  -38.96   -7.93    0.00248    -1.60  LEFT      9.26902E-02   -48.44    2.60237E-03   126.49
  -54.00     2.00     -11.82  -47.74  -11.82    0.00154    -0.91  RIGHT     5.92132E-02   -38.30    9.47434E-04   147.22
  -53.00     2.00     -19.88  -49.28  -19.88    0.01738     1.67  RIGHT     2.34200E-02   -27.79    7.93414E-04   -58.68
  -52.00     2.00     -24.49  -39.84  -24.37    0.04656    -9.34  LEFT      1.37732E-02   161.48    2.35415E-03   -34.76
  -51.00     2.00     -13.07  -35.59  -13.05    0.01793    -4.16  LEFT      5.12928E-02   172.62    3.83913E-03   -21.32
  -50.00     2.00      -8.39  -32.97   -8.37    0.01284    -3.29  LEFT      8.79498E-02  -176.52    5.18714E-03    -9.13
  -49.00     2.00      -5.51  -31.21   -5.50    0.01049    -2.91  LEFT      1.22466E-01  -165.52    6.35764E-03     2.79
  -48.00     2.00      -3.55  -29.99   -3.54    0.00900    -2.68  LEFT      1.53523E-01  -154.37    7.31424E-03    14.72
  -47.00     2.00      -2.18  -29.18   -2.17    0.00789    -2.52  LEFT      1.79822E-01  -143.04    8.02493E-03    26.76
  -46.00     2.00      -1.25  -28.72   -1.24    0.00697    -2.39  LEFT      2.00141E-01  -131.53    8.46341E-03    38.96
  -45.00     2.00      -0.69  -28.57   -0.68    0.00616    -2.28  LEFT      2.13402E-01  -119.86    8.61063E-03    51.34
  -44.00     2.00      -0.47  -28.73   -0.47    0.00541    -2.19  LEFT      2.18743E-01  -108.01    8.45624E-03    63.94
  -43.00     2.00      -0.60  -29.21   -0.59    0.00467    -2.11  LEFT      2.15576E-01   -95.99    7.99988E-03    76.76
  -42.00     2.00      -1.09  -30.06   -1.09    0.00392    -2.03  LEFT      2.03652E-01   -83.81    7.25226E-03    89.86
  -41.00     2.00      -2.02  -31.37   -2.01    0.00310    -1.94  LEFT      1.83102E-01   -71.47    6.23575E-03   103.30
  -40.00     2.00      -3.50  -33.32   -3.49    0.00211    -1.84  LEFT      1.54471E-01   -59.00    4.98480E-03   117.25
  -39.00     2.00      -5.78  -36.28   -5.78    0.00075    -1.71  LEFT      1.18728E-01   -46.41    3.54607E-03   132.16
  -38.00     2.00      -9.51  -41.33   -9.51    0.00172    -1.47  RIGHT     7.72542E-02   -33.83    1.98114E-03   150.01
  -37.00     2.00     -17.22  -54.10  -17.22    0.00994    -0.59  RIGHT     3.18128E-02   -21.97    4.55565E-04  -158.02
  -36.00     2.00     -23.41  -44.44  -23.37    0.03572    -4.65  LEFT      1.56079E-02   177.28    1.38618E-03   -26.60
  -35.00     2.00     -11.35  -37.92  -11.34    0.01028    -2.62  LEFT      6.25591E-02  -172.42    2.93647E-03    -5.10
  -34.00     2.00      -6.70  -34.49   -6.70    0.00669    -2.30  LEFT      1.06751E-01  -159.35    4.35371E-03    11.19
  -33.00     2.00      -4.00  -32.38   -3.99    0.00508    -2.16  LEFT      1.45772E-01  -145.87    5.55461E-03    26.45
  -32.00     2.00      -2.29  -31.05   -2.29    0.00408    -2.08  LEFT      1.77387E-01  -132.17    6.47380E-03    41.41
  -31.00     2.00      -1.27  -30.30   -1.26    0.00333    -2.02  LEFT      1.99660E-01  -118.29    7.05883E-03    56.30
  -30.00     2.00      -0.78  -30.04   -0.78    0.00270    -1.97  LEFT      2.11090E-01  -104.26    7.27269E-03    71.24
  -29.00     2.00      -0.80  -30.25   -0.79    0.00213    -1.92  LEFT      2.10730E-01   -90.09    7.09662E-03    86.28
  -28.00     2.00      -1.33  -30.97   -1.32    0.00157    -1.88  LEFT      1.98284E-01   -75.78    6.53235E-03   101.49
  -27.00     2.00      -2.45  -32.30   -2.45    0.00096    -1.84  LEFT      1.74163E-01   -61.34    5.60328E-03   116.95
  -26.00     2.00      -4.38  -34.49   -4.38    0.00018    -1.79  LEFT      1.39510E-01   -46.79    4.35476E-03   132.87
  -25.00     2.00      -7.61  -38.16   -7.61    0.00107    -1.70  RIGHT     9.61649E-02   -32.12    2.85352E-03   149.94
  -24.00     2.00     -13.91  -45.74  -13.90    0.00452    -1.44  RIGHT     4.65863E-02   -17.37    1.19319E-03   172.79
  -23.00     2.00     -31.32  -51.03  -31.28    0.04686    -5.27  LEFT      6.27257E-03   178.17    6.48615E-04   -29.02
  -22.00     2.00     -11.84  -39.92  -11.83    0.00583    -2.23  LEFT      5.91332E-02  -167.33    2.33240E-03     4.16
  -21.00     2.00      -6.56  -35.41   -6.55    0.00337    -2.06  LEFT      1.08597E-01  -152.25    3.91692E-03    22.38
  -20.00     2.00      -3.67  -32.84   -3.67    0.00237    -1.99  LEFT      1.51368E-01  -137.05    5.26799E-03    39.04
  -19.00     2.00      -1.95  -31.30   -1.95    0.00176    -1.95  LEFT      1.84481E-01  -121.76    6.29214E-03    55.27
  -18.00     2.00      -1.01  -30.48   -1.01    0.00132    -1.93  LEFT      2.05526E-01  -106.38    6.91589E-03    71.37
  -17.00     2.00      -0.71  -30.26   -0.71    0.00096    -1.91  LEFT      2.12839E-01   -90.91    7.08982E-03    87.44
  -16.00     2.00      -1.01  -30.63   -1.00    0.00063    -1.89  LEFT      2.05650E-01   -75.34    6.79276E-03   103.56
  -15.00     2.00      -1.97  -31.66   -1.96    0.00030    -1.88  LEFT      1.84177E-01   -59.69    6.03446E-03   119.79
  -14.00     2.00      -3.77  -33.55   -3.77    0.00009    -1.86  RIGHT     1.49649E-01   -43.91    4.85633E-03   136.25
  -13.00     2.00      -6.91  -36.82   -6.91    0.00069    -1.83  RIGHT     1.04252E-01   -27.95    3.33020E-03   153.28
  -12.00     2.00     -13.12  -43.43  -13.11    0.00228    -1.74  RIGHT     5.10156E-02   -11.39    1.55685E-03   172.91
  -11.00     2.00     -30.92  -55.07  -30.90    0.01590    -3.43  LEFT      6.56974E-03   171.05    4.07582E-04   -23.86
  -10.00     2.00     -11.15  -40.09  -11.14    0.00226    -2.04  LEFT      6.39903E-02  -162.38    2.28671E-03    13.98
   -9.00     2.00      -5.87  -35.09   -5.87    0.00120    -1.98  LEFT      1.17485E-01  -145.89    4.06436E-03    32.12
   -8.00     2.00      -3.03  -32.34   -3.02    0.00076    -1.96  LEFT      1.62974E-01  -129.72    5.58108E-03    49.00
   -7.00     2.00      -1.38  -30.72   -1.38    0.00050    -1.95  LEFT      1.96991E-01  -113.61    6.72075E-03    65.55
   -6.00     2.00      -0.55  -29.90   -0.54    0.00032    -1.95  LEFT      2.16851E-01   -97.49    7.39228E-03    81.97
   -5.00     2.00      -0.39  -29.73   -0.38    0.00019    -1.95  LEFT      2.20866E-01   -81.35    7.53609E-03    98.34
   -4.00     2.00      -0.89  -30.21   -0.88    0.00008    -1.96  LEFT      2.08501E-01   -65.17    7.12939E-03   114.70
   -3.00     2.00      -2.15  -31.44   -2.14    0.00000    -1.96  LINEAR    1.80435E-01   -48.90    6.18891E-03   131.10
   -2.00     2.00      -4.44  -33.70   -4.44    0.00007    -1.97  RIGHT     1.38538E-01   -32.47    4.77095E-03   147.64
   -1.00     2.00      -8.61  -37.82   -8.60    0.00010    -1.98  RIGHT     8.57593E-02   -15.53    2.96848E-03   164.64
    0.00     2.00     -18.97  -48.11  -18.97    0.00000    -2.00  LINEAR    2.60041E-02     5.58    9.08082E-04  -174.42
  -90.00     3.00    -999.99 -999.99 -999.99    0.00000     0.00            4.99582E-12  -164.63    4.51719E-13   122.09
  -89.00     3.00     -23.35  -43.52  -23.31    0.09534     1.33  RIGHT     1.57001E-02    18.59    1.54064E-03   -57.85
  -88.00     3.00     -18.06  -37.52  -18.02    0.10464     1.11  RIGHT     2.88643E-02    22.15    3.07158E-03   -57.49
  -87.00     3.00     -15.27  -34.03  -15.21    0.11440     0.82  RIGHT     3.98185E-02    26.15    4.59086E-03   -56.82
  -86.00     3.00     -13.49  -31.57  -13.43    0.12453     0.44  RIGHT     4.88603E-02    30.68    6.09621E-03   -55.84
  -85.00     3.00     -12.27  -29.67  -12.19    0.13479    -0.05  RIGHT     5.62699E-02    35.81    7.58495E-03   -54.56
  -84.00     3.00     -11.38  -28.14  -11.29    0.14478    -0.68  RIGHT     6.23240E-02    41.64    9.05381E-03   -52.96
  -83.00     3.00     -10.71  -26.85  -10.61    0.15383    -1.48  RIGHT     6.73103E-02    48.22    1.04988E-02   -51.06
  -82.00     3.00     -10.18  -25.75  -10.06    0.16098    -2.45  RIGHT     7.15384E-02    55.62    1.19151E-02   -48.86
  -81.00     3.00      -9.73  -24.80   -9.60    0.16499    -3.59  RIGHT     7.53474E-02    63.86    1.32970E-02   -46.35
  -80.00     3.00      -9.31  -23.96   -9.16    0.16455    -4.84  RIGHT     7.91035E-02    72.90    1.46377E-02   -43.53
  -79.00     3.00      -8.87  -23.23   -8.71    0.15868    -6.12  RIGHT     8.31859E-02    82.66    1.59293E-02   -40.41
  -78.00     3.00      -8.39  -22.58   -8.22    0.14715    -7.30  RIGHT     8.79581E-02    93.00    1.71628E-02   -36.98
  -77.00     3.00      -7.83  -22.01   -7.67    0.13078    -8.27  RIGHT     9.37299E-02   103.69    1.83281E-02   -33.26
  -76.00     3.00      -7.21  -21.51   -7.05    0.11128    -8.95  RIGHT     1.00718E-01   114.52    1.94138E-02   -29.22
  -75.00     3.00      -6.52  -21.08   -6.37    0.09070    -9.30  RIGHT     1.09022E-01   125.28    2.04077E-02   -24.89
  -74.00     3.00      -5.79  -20.71   -5.65    0.07088    -9.37  RIGHT     1.18616E-01   135.82    2.12963E-02   -20.26
  -73.00     3.00      -5.04  -20.40   -4.91    0.05304    -9.21  RIGHT     1.29357E-01   146.07    2.20656E-02   -15.33
  -72.00     3.00      -4.29  -20.15   -4.18    0.03781    -8.89  RIGHT     1.41010E-01   155.98    2.27006E-02   -10.09
  -71.00     3.00      -3.56  -19.97   -3.47    0.02530    -8.48  RIGHT     1.53263E-01   165.59    2.31864E-02    -4.56
  -70.00     3.00      -2.88  -19.85   -2.80    0.01533    -8.03  RIGHT     1.65747E-01   174.93    2.35078E-02     1.26
  -69.00     3.00      -2.26  -19.80   -2.19    0.00758    -7.55  RIGHT     1.78049E-01  -175.95    2.36498E-02     7.38
  -68.00     3.00      -1.71  -19.81   -1.64    0.00166    -7.09  RIGHT     1.89720E-01  -166.98    2.35985E-02    13.79
  -67.00     3.00      -1.24  -19.91   -1.18    0.00276    -6.65  LEFT      2.00289E-01  -158.12    2.33410E-02    20.50
  -66.00     3.00      -0.86  -20.09   -0.81    0.00599    -6.23  LEFT      2.09269E-01  -149.32    2.28663E-02    27.50
  -65.00     3.00      -0.58  -20.36   -0.53    0.00827    -5.84  LEFT      2.16168E-01  -140.54    2.21659E-02    34.79
  -64.00     3.00      -0.40  -20.73   -0.36    0.00981    -5.47  LEFT      2.20503E-01  -131.73    2.12342E-02    42.37
  -63.00     3.00      -0.35  -21.22   -0.32    0.01076    -5.13  LEFT      2.21814E-01  -122.87    2.00690E-02    50.25
  -62.00     3.00      -0.44  -21.85   -0.41    0.01124    -4.82  LEFT      2.19681E-01  -113.93    1.86728E-02    58.42
  -61.00     3.00      -0.67  -22.64   -0.65    0.01133    -4.52  LEFT      2.13743E-01  -104.90    1.70524E-02    66.89
  -60.00     3.00      -1.09  -23.62   -1.07    0.01108    -4.23  LEFT      2.03720E-01   -95.75    1.52203E-02    75.68
  -59.00     3.00      -1.72  -24.86   -1.70    0.01053    -3.94  LEFT      1.89431E-01   -86.46    1.31947E-02    84.80
  -58.00     3.00      -2.62  -26.44   -2.60    0.00966    -3.64  LEFT      1.70817E-01   -77.04    1.09999E-02    94.30
  -57.00     3.00      -3.87  -28.52   -3.85    0.00840    -3.32  LEFT      1.47958E-01   -67.46    8.66667E-03   104.27
  -56.00     3.00      -5.61  -31.38   -5.60    0.00653    -2.92  LEFT      1.21090E-01   -57.72    6.23242E-03   114.97
  -55.00     3.00      -8.13  -35.81   -8.12    0.00347    -2.36  LEFT      9.06190E-02   -47.81    3.74300E-03   127.36
  -54.00     3.00     -12.14  -45.15  -12.13    0.00290    -1.27  RIGHT     5.71252E-02   -37.70    1.27607E-03   149.76
  -53.00     3.00     -20.68  -44.84  -20.66    0.02970     3.11  RIGHT     2.13635E-02   -27.24    1.32265E-03   -56.00
  -52.00     3.00     -23.33  -36.01  -23.10    0.06194   -12.62  LEFT      1.57461E-02   162.34    3.65646E-03   -33.93
  -51.00     3.00     -12.77  -31.90  -12.71    0.02625    -6.12  LEFT      5.31314E-02   173.27    5.86845E-03   -20.65
  -50.00     3.00      -8.23  -29.35   -8.19    0.01904    -4.90  LEFT      8.96031E-02  -175.91    7.87286E-03    -8.51
  -49.00     3.00      -5.41  -27.62   -5.39    0.01561    -4.34  LEFT      1.23886E-01  -164.93    9.60954E-03     3.39
  -48.00     3.00      -3.48  -26.43   -3.46    0.01342    -4.00  LEFT      1.54670E-01  -153.79    1.10244E-02    15.30
  -47.00     3.00      -2.13  -25.64   -2.12    0.01177    -3.76  LEFT      1.80660E-01  -142.48    1.20699E-02    27.33
  -46.00     3.00      -1.22  -25.19   -1.21    0.01041    -3.57  LEFT      2.00647E-01  -130.99    1.27072E-02    39.51
  -45.00     3.00      -0.68  -25.05   -0.67    0.00920    -3.42  LEFT      2.13563E-01  -119.33    1.29082E-02    51.89
  -44.00     3.00      -0.48  -25.22   -0.47    0.00807    -3.28  LEFT      2.18559E-01  -107.49    1.26581E-02    64.47
  -43.00     3.00      -0.62  -25.72   -0.61    0.00697    -3.16  LEFT      2.15062E-01   -95.49    1.19568E-02    77.29
  -42.00     3.00      -1.13  -26.59   -1.12    0.00584    -3.04  LEFT      2.02834E-01   -83.32    1.08209E-02    90.38
  -41.00     3.00      -2.07  -27.92   -2.06    0.00460    -2.91  LEFT      1.82022E-01   -71.00    9.28452E-03   103.82
  -40.00     3.00      -3.57  -29.89   -3.56    0.00311    -2.76  LEFT      1.53181E-01   -58.53    7.39968E-03   117.77
  -39.00     3.00      -5.89  -32.89   -5.88    0.00103    -2.56  LEFT      1.17290E-01   -45.97    5.23675E-03   132.71
  -38.00     3.00      -9.69  -38.06   -9.68    0.00277    -2.18  RIGHT     7.57374E-02   -33.41    2.88879E-03   150.76
  -37.00     3.00     -17.65  -51.26  -17.64    0.01588    -0.77  RIGHT     3.02909E-02   -21.67    6.31506E-04  -152.03
  -36.00     3.00     -22.63  -40.61  -22.56    0.04886    -6.64  LEFT      1.70635E-02   177.45    2.15341E-03   -25.66
  -35.00     3.00     -11.16  -34.26  -11.14    0.01515    -3.91  LEFT      6.38815E-02  -172.01    4.47195E-03    -4.57
  -34.00     3.00      -6.61  -30.90   -6.60    0.00995    -3.45  LEFT      1.07877E-01  -158.94    6.58673E-03    11.65
  -33.00     3.00      -3.95  -28.81   -3.93    0.00758    -3.24  LEFT      1.46651E-01  -145.47    8.37476E-03    26.87
  -32.00     3.00      -2.26  -27.50   -2.25    0.00609    -3.11  LEFT      1.77983E-01  -131.78    9.73880E-03    41.81
  -31.00     3.00      -1.25  -26.77   -1.24    0.00497    -3.02  LEFT      1.99954E-01  -117.92    1.06010E-02    56.69
  -30.00     3.00      -0.78  -26.52   -0.77    0.00403    -2.95  LEFT      2.11080E-01  -103.90    1.09067E-02    71.62
  -29.00     3.00      -0.81  -26.74   -0.80    0.00318    -2.89  LEFT      2.10431E-01   -89.74    1.06284E-02    86.65
  -28.00     3.00      -1.35  -27.47   -1.34    0.00233    -2.83  LEFT      1.97727E-01   -75.44    9.76964E-03   101.84
  -27.00     3.00      -2.49  -28.82   -2.48    0.00141    -2.76  LEFT      1.73397E-01   -61.02    8.36604E-03   117.30
  -26.00     3.00      -4.44  -31.03   -4.43    0.00025    -2.68  LEFT      1.38593E-01   -46.48    6.48612E-03   133.22
  -25.00     3.00      -7.70  -34.74   -7.69    0.00166    -2.54  RIGHT     9.51625E-02   -31.83    4.23035E-03   150.31
  -24.00     3.00     -14.10  -42.46  -14.09    0.00699    -2.15  RIGHT     4.55676E-02   -17.09    1.74014E-03   173.46
  -23.00     3.00     -30.08  -47.12  -29.99    0.06082    -7.22  LEFT      7.24059E-03   178.48    1.01739E-03   -27.61
  -22.00     3.00     -11.71  -36.29  -11.70    0.00863    -3.34  LEFT      5.99898E-02  -167.05    3.54174E-03     4.51
  -21.00     3.00      -6.50  -31.84   -6.49    0.00503    -3.08  LEFT      1.09293E-01  -151.98    5.91122E-03    22.67
  -20.00     3.00      -3.64  -29.29   -3.63    0.00354    -2.98  LEFT      1.51866E-01  -136.81    7.92863E-03    39.30
  -19.00     3.00      -1.94  -27.76   -1.93    0.00264    -2.93  LEFT      1.84762E-01  -121.53    9.45467E-03    55.51
  -18.00     3.00      -1.01  -26.95   -1.00    0.00198    -2.89  LEFT      2.05588E-01  -106.16    1.03799E-02    71.60
  -17.00     3.00      -0.72  -26.74   -0.71    0.00143    -2.86  LEFT      2.12696E-01   -90.70    1.06309E-02    87.66
  -16.00     3.00      -1.02  -27.12   -1.01    0.00094    -2.84  LEFT      2.05332E-01   -75.15    1.01766E-02   103.76
  -15.00     3.00      -1.99  -28.16   -1.98    0.00044    -2.81  LEFT      1.83726E-01   -59.50    9.03230E-03   119.98
  -14.00     3.00      -3.80  -30.05   -3.79    0.00015    -2.79  RIGHT     1.49113E-01   -43.74    7.26039E-03   136.43
  -13.00     3.00      -6.96  -33.35   -6.95    0.00105    -2.74  RIGHT     1.03685E-01   -27.79    4.96883E-03   153.46
  -12.00     3.00     -13.21  -40.00  -13.20    0.00347    -2.61  RIGHT     5.04684E-02   -11.23    2.30891E-03   173.13
  -11.00     3.00     -30.32  -51.24  -30.28    0.02279    -4.97  LEFT      7.04102E-03   172.05    6.33404E-04   -22.74
  -10.00     3.00     -11.10  -36.51  -11.09    0.00338    -3.06  LEFT      6.43720E-02  -162.25    3.45072E-03    14.13
   -9.00     3.00      -5.85  -31.55   -5.84    0.00179    -2.97  LEFT      1.17745E-01  -145.78    6.11231E-03    32.24
   -8.00     3.00      -3.02  -28.81   -3.01    0.00114    -2.94  LEFT      1.63102E-01  -129.62    8.38189E-03    49.11
   -7.00     3.00      -1.38  -27.20   -1.37    0.00075    -2.93  LEFT      1.96995E-01  -113.52    1.00860E-02    65.64
   -6.00     3.00      -0.55  -26.37   -0.54    0.00048    -2.93  LEFT      2.16750E-01   -97.42    1.10885E-02    82.04
   -5.00     3.00      -0.40  -26.21   -0.39    0.00028    -2.93  LEFT      2.20690E-01   -81.29    1.13005E-02    98.40
   -4.00     3.00      -0.90  -26.69   -0.89    0.00012    -2.94  LEFT      2.08287E-01   -65.12    1.06883E-02   114.75
   -3.00     3.00      -2.16  -27.92   -2.14    0.00001    -2.95  LINEAR    1.80221E-01   -48.87    9.27693E-03   131.14
   -2.00     3.00      -4.45  -30.18   -4.44    0.00010    -2.96  RIGHT     1.38363E-01   -32.45    7.15089E-03   147.67
   -1.00     3.00      -8.62  -34.31   -8.61    0.00015    -2.97  RIGHT     8.56517E-02   -15.52    4.44935E-03   164.65
    0.00     3.00     -18.98  -44.59  -18.97    0.00000    -3.00  LINEAR    2.59843E-02     5.58    1.36178E-03  -174.42
  -90.00     4.00    -999.99 -999.99 -999.99    0.00000     0.00            4.91477E-12  -163.10    6.02029E-13   123.16
  -89.00     4.00     -23.50  -41.02  -23.42    0.12936     1.75  RIGHT     1.54454E-02    20.13    2.05324E-03   -56.79
  -88.00     4.00     -18.21  -35.03  -18.12    0.14193     1.44  RIGHT     2.83959E-02    23.71    4.09341E-03   -56.42
  -87.00     4.00     -15.41  -31.54  -15.31    0.15511     1.04  RIGHT     3.91731E-02    27.73    6.11773E-03   -55.75
  -86.00     4.00     -13.63  -29.08  -13.51    0.16874     0.51  RIGHT     4.80714E-02    32.29    8.12305E-03   -54.78
  -85.00     4.00     -12.41  -27.18  -12.26    0.18248    -0.18  RIGHT     5.53695E-02    37.48    1.01056E-02   -53.49
  -84.00     4.00     -11.52  -25.64  -11.35    0.19572    -1.07  RIGHT     6.13445E-02    43.36    1.20610E-02   -51.90
  -83.00     4.00     -10.84  -24.36  -10.65    0.20745    -2.20  RIGHT     6.62857E-02    50.01    1.39837E-02   -50.00
  -82.00     4.00     -10.31  -23.26  -10.09    0.21629    -3.56  RIGHT     7.05053E-02    57.49    1.58672E-02   -47.80
  -81.00     4.00      -9.85  -22.31   -9.61    0.22048    -5.15  RIGHT     7.43448E-02    65.79    1.77037E-02   -45.29
  -80.00     4.00      -9.41  -21.48   -9.15    0.21831    -6.87  RIGHT     7.81715E-02    74.90    1.94841E-02   -42.48
  -79.00     4.00      -8.96  -20.75   -8.68    0.20865    -8.58  RIGHT     8.23626E-02    84.71    2.11979E-02   -39.36
  -78.00     4.00      -8.45  -20.10   -8.17    0.19158   -10.11  RIGHT     8.72750E-02    95.06    2.28330E-02   -35.94
  -77.00     4.00      -7.88  -19.53   -7.60    0.16860   -11.32  RIGHT     9.32069E-02   105.74    2.43758E-02   -32.21
  -76.00     4.00      -7.24  -19.04   -6.96    0.14218   -12.10  RIGHT     1.00361E-01   116.52    2.58112E-02   -28.19
  -75.00     4.00      -6.54  -18.61   -6.28    0.11502   -12.47  RIGHT     1.08819E-01   127.21    2.71228E-02   -23.86
  -74.00     4.00      -5.79  -18.24   -5.55    0.08930   -12.48  RIGHT     1.18543E-01   137.67    2.82928E-02   -19.23
  -73.00     4.00      -5.03  -17.93   -4.82    0.06643   -12.22  RIGHT     1.29380E-01   147.82    2.93025E-02   -14.30
  -72.00     4.00      -4.28  -17.69   -4.09    0.04704   -11.77  RIGHT     1.41088E-01   157.64    3.01323E-02    -9.07
  -71.00     4.00      -3.56  -17.51   -3.39    0.03116   -11.21  RIGHT     1.53352E-01   167.16    3.07621E-02    -3.55
  -70.00     4.00      -2.88  -17.40   -2.73    0.01853   -10.60  RIGHT     1.65802E-01   176.41    3.11719E-02     2.27
  -69.00     4.00      -2.26  -17.35   -2.13    0.00870    -9.97  RIGHT     1.78026E-01  -174.54    3.13423E-02     8.38
  -68.00     4.00      -1.72  -17.37   -1.60    0.00120    -9.36  RIGHT     1.89579E-01  -165.64    3.12547E-02    14.79
  -67.00     4.00      -1.25  -17.48   -1.15    0.00440    -8.78  LEFT      1.99991E-01  -156.84    3.08923E-02    21.49
  -66.00     4.00      -0.88  -17.66   -0.79    0.00848    -8.23  LEFT      2.08780E-01  -148.09    3.02410E-02    28.48
  -65.00     4.00      -0.60  -17.94   -0.53    0.01137    -7.71  LEFT      2.15458E-01  -139.35    2.92895E-02    35.77
  -64.00     4.00      -0.44  -18.32   -0.37    0.01330    -7.24  LEFT      2.19548E-01  -130.58    2.80309E-02    43.34
  -63.00     4.00      -0.40  -18.82   -0.34    0.01447    -6.79  LEFT      2.20597E-01  -121.76    2.64628E-02    51.21
  -62.00     4.00      -0.50  -19.46   -0.44    0.01504    -6.37  LEFT      2.18192E-01  -112.86    2.45888E-02    59.38
  -61.00     4.00      -0.75  -20.26   -0.70    0.01511    -5.98  LEFT      2.11981E-01  -103.85    2.24186E-02    67.84
  -60.00     4.00      -1.18  -21.26   -1.14    0.01474    -5.59  LEFT      2.01693E-01   -94.73    1.99692E-02    76.63
  -59.00     4.00      -1.83  -22.53   -1.79    0.01396    -5.21  LEFT      1.87157E-01   -85.48    1.72653E-02    85.74
  -58.00     4.00      -2.75  -24.14   -2.72    0.01275    -4.81  LEFT      1.68322E-01   -76.08    1.43396E-02    95.25
  -57.00     4.00      -4.03  -26.26   -4.00    0.01101    -4.38  LEFT      1.45279E-01   -66.53    1.12334E-02   105.24
  -56.00     4.00      -5.81  -29.21   -5.79    0.00842    -3.84  LEFT      1.18274E-01   -56.82    7.99713E-03   116.00
  -55.00     4.00      -8.41  -33.84   -8.40    0.00414    -3.05  LEFT      8.77214E-02   -46.93    4.69253E-03   128.62
  -54.00     4.00     -12.59  -44.13  -12.59    0.00506    -1.49  RIGHT     5.42078E-02   -36.86    1.43637E-03   154.15
  -53.00     4.00     -21.93  -41.20  -21.88    0.04788     5.58  RIGHT     1.84942E-02   -26.49    2.01222E-03   -52.87
  -52.00     4.00     -21.93  -33.11  -21.61    0.07209   -14.93  LEFT      1.84952E-02   163.44    5.10717E-03   -32.79
  -51.00     4.00     -12.36  -29.18  -12.27    0.03391    -7.98  LEFT      5.56888E-02   174.17    8.02736E-03   -19.71
  -50.00     4.00      -8.01  -26.71   -7.95    0.02498    -6.47  LEFT      9.18980E-02  -175.05    1.06669E-02    -7.64
  -49.00     4.00      -5.27  -25.03   -5.23    0.02060    -5.76  LEFT      1.25853E-01  -164.11    1.29469E-02     4.22
  -48.00     4.00      -3.40  -23.87   -3.36    0.01775    -5.31  LEFT      1.56251E-01  -152.99    1.47960E-02    16.11
  -47.00     4.00      -2.08  -23.11   -2.05    0.01559    -5.00  LEFT      1.81809E-01  -141.70    1.61518E-02    28.12
  -46.00     4.00      -1.19  -22.68   -1.16    0.01379    -4.75  LEFT      2.01330E-01  -130.23    1.69635E-02    40.29
  -45.00     4.00      -0.67  -22.56   -0.65    0.01219    -4.55  LEFT      2.13764E-01  -118.58    1.71948E-02    52.65
  -44.00     4.00      -0.49  -22.75   -0.47    0.01069    -4.37  LEFT      2.18279E-01  -106.76    1.68268E-02    65.22
  -43.00     4.00      -0.65  -23.27   -0.63    0.00922    -4.20  LEFT      2.14321E-01   -94.78    1.58606E-02    78.02
  -42.00     4.00      -1.18  -24.15   -1.16    0.00771    -4.04  LEFT      2.01673E-01   -82.63    1.43194E-02    91.11
  -41.00     4.00      -2.14  -25.51   -2.12    0.00604    -3.87  LEFT      1.80497E-01   -70.33    1.22495E-02   104.54
  -40.00     4.00      -3.67  -27.52   -3.65    0.00403    -3.67  LEFT      1.51365E-01   -57.89    9.72098E-03   118.50
  -39.00     4.00      -6.04  -30.59   -6.02    0.00119    -3.39  LEFT      1.15271E-01   -45.34    6.82836E-03   133.50
  -38.00     4.00      -9.93  -35.91   -9.92    0.00406    -2.87  RIGHT     7.36125E-02   -32.83    3.69712E-03   151.82
  -37.00     4.00     -18.28  -49.64  -18.28    0.02321    -0.79  RIGHT     2.81631E-02   -21.29    7.61369E-04  -142.10
  -36.00     4.00     -21.65  -37.70  -21.55    0.05814    -8.33  LEFT      1.90959E-02   177.74    3.00945E-03   -24.40
  -35.00     4.00     -10.92  -31.58  -10.88    0.01974    -5.17  LEFT      6.57238E-02  -171.42    6.08749E-03    -3.83
  -34.00     4.00      -6.49  -28.30   -6.46    0.01311    -4.58  LEFT      1.09441E-01  -158.37    8.88635E-03    12.29
  -33.00     4.00      -3.87  -26.25   -3.85    0.01002    -4.31  LEFT      1.47869E-01  -144.91    1.12454E-02    27.47
  -32.00     4.00      -2.22  -24.97   -2.20    0.00806    -4.14  LEFT      1.78805E-01  -131.24    1.30366E-02    42.38
  -31.00     4.00      -1.24  -24.25   -1.21    0.00658    -4.02  LEFT      2.00352E-01  -117.39    1.41576E-02    57.24
  -30.00     4.00      -0.78  -24.02   -0.76    0.00534    -3.93  LEFT      2.11052E-01  -103.39    1.45370E-02    72.14
  -29.00     4.00      -0.83  -24.26   -0.81    0.00420    -3.84  LEFT      2.10000E-01   -89.25    1.41397E-02    87.16
  -28.00     4.00      -1.39  -25.01   -1.37    0.00308    -3.76  LEFT      1.96940E-01   -74.97    1.29717E-02   102.34
  -27.00     4.00      -2.55  -26.38   -2.53    0.00184    -3.68  LEFT      1.72318E-01   -60.57    1.10817E-02   117.78
  -26.00     4.00      -4.52  -28.62   -4.50    0.00027    -3.57  LEFT      1.37305E-01   -46.04    8.56195E-03   133.71
  -25.00     4.00      -7.83  -32.39   -7.82    0.00231    -3.38  RIGHT     9.37577E-02   -31.41    5.54712E-03   150.84
  -24.00     4.00     -14.38  -40.32  -14.36    0.00973    -2.83  RIGHT     4.41423E-02   -16.71    2.22770E-03   174.44
  -23.00     4.00     -28.59  -44.10  -28.47    0.06842    -8.70  LEFT      8.59300E-03   178.91    1.44021E-03   -25.79
  -22.00     4.00     -11.54  -33.64  -11.51    0.01131    -4.44  LEFT      6.11847E-02  -166.66    4.80265E-03     5.01
  -21.00     4.00      -6.42  -29.27   -6.40    0.00664    -4.11  LEFT      1.10261E-01  -151.62    7.94821E-03    23.07
  -20.00     4.00      -3.60  -26.75   -3.58    0.00469    -3.97  LEFT      1.52558E-01  -136.46    1.06209E-02    39.66
  -19.00     4.00      -1.92  -25.24   -1.90    0.00350    -3.90  LEFT      1.85150E-01  -121.20    1.26366E-02    55.85
  -18.00     4.00      -1.01  -24.44   -0.99    0.00262    -3.85  LEFT      2.05670E-01  -105.85    1.38508E-02    71.91
  -17.00     4.00      -0.73  -24.25   -0.71    0.00190    -3.81  LEFT      2.12493E-01   -90.40    1.41670E-02    87.96
  -16.00     4.00      -1.04  -24.64   -1.02    0.00124    -3.78  LEFT      2.04885E-01   -74.87    1.35453E-02   104.05
  -15.00     4.00      -2.02  -25.68   -2.00    0.00058    -3.75  LEFT      1.83092E-01   -59.25    1.20067E-02   120.25
  -14.00     4.00      -3.85  -27.59   -3.83    0.00021    -3.72  RIGHT     1.48362E-01   -43.50    9.63541E-03   136.69
  -13.00     4.00      -7.02  -30.91   -7.01    0.00142    -3.66  RIGHT     1.02891E-01   -27.57    6.57567E-03   153.71
  -12.00     4.00     -13.34  -37.65  -13.33    0.00472    -3.48  RIGHT     4.97030E-02   -11.01    3.02933E-03   173.45
[...]
  -71.00   359.00      -3.57  -29.46   -3.56    0.00921     2.86  LEFT      1.53173E-01   163.79    7.77193E-03   174.27
  -70.00   359.00      -2.89  -29.34   -2.88    0.00569     2.70  LEFT      1.65689E-01   173.22    7.88436E-03  -179.89
  -69.00   359.00      -2.26  -29.28   -2.25    0.00295     2.55  LEFT      1.78072E-01  -177.57    7.93717E-03  -173.77
  -68.00   359.00      -1.70  -29.29   -1.70    0.00086     2.39  LEFT      1.89874E-01  -168.53    7.92557E-03  -167.35
  -67.00   359.00      -1.22  -29.38   -1.22    0.00070     2.24  RIGHT     2.00618E-01  -159.60    7.84523E-03  -160.63
  -66.00   359.00      -0.84  -29.55   -0.83    0.00185     2.10  RIGHT     2.09813E-01  -150.74    7.69236E-03  -153.63
  -65.00   359.00      -0.54  -29.81   -0.54    0.00266     1.96  RIGHT     2.16962E-01  -141.90    7.46398E-03  -146.33
  -64.00   359.00      -0.36  -30.18   -0.36    0.00320     1.84  RIGHT     2.21575E-01  -133.04    7.15812E-03  -138.74
  -63.00   359.00      -0.30  -30.66   -0.29    0.00355     1.73  RIGHT     2.23184E-01  -124.14    6.77397E-03  -130.86
  -62.00   359.00      -0.37  -31.27   -0.37    0.00373     1.62  RIGHT     2.21361E-01  -115.16    6.31215E-03  -122.68
  -61.00   359.00      -0.59  -32.04   -0.59    0.00377     1.52  RIGHT     2.15736E-01  -106.09    5.77488E-03  -114.20
  -60.00   359.00      -0.99  -33.01   -0.99    0.00371     1.42  RIGHT     2.06018E-01   -96.90    5.16618E-03  -105.41
  -59.00   359.00      -1.61  -34.22   -1.60    0.00353     1.32  RIGHT     1.92015E-01   -87.59    4.49198E-03   -96.28
  -58.00   359.00      -2.48  -35.77   -2.48    0.00326     1.23  RIGHT     1.73657E-01   -78.14    3.76029E-03   -86.79
  -57.00   359.00      -3.69  -37.78   -3.69    0.00285     1.12  RIGHT     1.51011E-01   -68.53    2.98125E-03   -76.83
  -56.00   359.00      -5.38  -40.55   -5.38    0.00225     0.99  RIGHT     1.24305E-01   -58.76    2.16726E-03   -66.19
  -55.00   359.00      -7.82  -44.77   -7.81    0.00129     0.81  RIGHT     9.39334E-02   -48.81    1.33341E-03   -54.03
  -54.00   359.00     -11.64  -53.24  -11.64    0.00066     0.48  LEFT      6.04677E-02   -38.66    5.03060E-04   -34.13
  -53.00   359.00     -19.43  -55.90  -19.43    0.00805    -0.73  LEFT      2.46567E-02   -28.13    3.70376E-04   119.47
  -52.00   359.00     -25.27  -46.04  -25.24    0.02535     5.03  RIGHT     1.25858E-02   160.94    1.15190E-03   144.73
  -51.00   359.00     -13.26  -41.71  -13.25    0.00910     2.10  RIGHT     5.01848E-02   172.23    1.89747E-03   158.28
  -50.00   359.00      -8.49  -39.06   -8.48    0.00647     1.66  RIGHT     8.69522E-02  -176.89    2.57499E-03   170.49
  -49.00   359.00      -5.57  -37.27   -5.57    0.00527     1.46  RIGHT     1.21607E-01  -165.88    3.16405E-03  -177.57
  -48.00   359.00      -3.59  -36.03   -3.59    0.00451     1.34  RIGHT     1.52829E-01  -154.71    3.64635E-03  -165.63
  -47.00   359.00      -2.20  -35.22   -2.20    0.00396     1.26  RIGHT     1.79313E-01  -143.37    4.00580E-03  -153.58
  -46.00   359.00      -1.26  -34.75   -1.26    0.00350     1.20  RIGHT     1.99830E-01  -131.86    4.22914E-03  -141.37
  -45.00   359.00      -0.69  -34.59   -0.69    0.00309     1.14  RIGHT     2.13299E-01  -120.18    4.30672E-03  -128.98
  -44.00   359.00      -0.47  -34.74   -0.47    0.00271     1.10  RIGHT     2.18846E-01  -108.32    4.23325E-03  -116.38
  -43.00   359.00      -0.59  -35.21   -0.59    0.00235     1.06  RIGHT     2.15879E-01   -96.30    4.00845E-03  -103.55
  -42.00   359.00      -1.07  -36.06   -1.07    0.00197     1.01  RIGHT     2.04137E-01   -84.11    3.63754E-03   -90.45
  -41.00   359.00      -1.99  -37.36   -1.99    0.00156     0.97  RIGHT     1.83746E-01   -71.76    3.13164E-03   -77.01
  -40.00   359.00      -3.45  -39.29   -3.45    0.00107     0.92  RIGHT     1.55242E-01   -59.28    2.50786E-03   -63.07
  -39.00   359.00      -5.72  -42.22   -5.72    0.00039     0.86  RIGHT     1.19589E-01   -46.68    1.78949E-03   -48.18
  -38.00   359.00      -9.41  -47.21   -9.41    0.00082     0.74  LEFT      7.81639E-02   -34.08    1.00716E-03   -30.43
  -37.00   359.00     -16.97  -59.70  -16.97    0.00479     0.32  LEFT      3.27267E-02   -22.15    2.39066E-04    18.78
  -36.00   359.00     -23.91  -50.64  -23.90    0.01898     2.40  RIGHT     1.47330E-02   177.21    6.78259E-04   152.82
  -35.00   359.00     -11.46  -44.02  -11.46    0.00519     1.32  RIGHT     6.17631E-02  -172.67    1.45474E-03   174.58
  -34.00   359.00      -6.76  -40.56   -6.76    0.00336     1.15  RIGHT     1.06072E-01  -159.60    2.16556E-03  -169.08
  -33.00   359.00      -4.03  -38.43   -4.03    0.00255     1.08  RIGHT     1.45241E-01  -146.11    2.76868E-03  -153.81
  -32.00   359.00      -2.31  -37.08   -2.31    0.00204     1.04  RIGHT     1.77025E-01  -132.40    3.23122E-03  -138.83
  -31.00   359.00      -1.27  -36.32   -1.27    0.00167     1.01  RIGHT     1.99480E-01  -118.52    3.52680E-03  -123.93
  -30.00   359.00      -0.78  -36.06   -0.78    0.00135     0.98  RIGHT     2.11093E-01  -104.48    3.63676E-03  -108.98
  -29.00   359.00      -0.79  -36.26   -0.79    0.00107     0.96  RIGHT     2.10907E-01   -90.30    3.55156E-03   -93.94
  -28.00   359.00      -1.31  -36.98   -1.31    0.00079     0.94  RIGHT     1.98615E-01   -75.98    3.27191E-03   -78.72
  -27.00   359.00      -2.43  -38.30   -2.43    0.00048     0.92  RIGHT     1.74621E-01   -61.54    2.80939E-03   -63.26
  -26.00   359.00      -4.35  -40.48   -4.34    0.00010     0.89  RIGHT     1.40060E-01   -46.98    2.18657E-03   -47.33
  -25.00   359.00      -7.56  -44.12   -7.56    0.00052     0.85  LEFT      9.67660E-02   -32.30    1.43674E-03   -30.28
  -24.00   359.00     -13.79  -51.62  -13.79    0.00222     0.73  LEFT      4.71978E-02   -17.53    6.06538E-04    -7.60
  -23.00   359.00     -32.17  -57.29  -32.16    0.02588     2.81  RIGHT     5.69096E-03   177.98    3.15471E-04   150.08
  -22.00   359.00     -11.91  -46.00  -11.91    0.00294     1.12  RIGHT     5.86181E-02  -167.49    1.15756E-03  -176.05
  -21.00   359.00      -6.59  -41.47   -6.59    0.00169     1.03  RIGHT     1.08179E-01  -152.40    1.95127E-03  -157.79
  -20.00   359.00      -3.69  -38.88   -3.69    0.00119     0.99  RIGHT     1.51067E-01  -137.20    2.62864E-03  -141.12
  -19.00   359.00      -1.96  -37.33   -1.96    0.00088     0.98  RIGHT     1.84311E-01  -121.90    3.14276E-03  -124.87
  -18.00   359.00      -1.02  -36.50   -1.02    0.00066     0.96  RIGHT     2.05487E-01  -106.51    3.45672E-03  -108.77
  -17.00   359.00      -0.71  -36.28   -0.71    0.00048     0.95  RIGHT     2.12923E-01   -91.03    3.54566E-03   -92.69
  -16.00   359.00      -1.00  -36.65   -1.00    0.00032     0.95  RIGHT     2.05840E-01   -75.46    3.39887E-03   -76.56
  -15.00   359.00      -1.95  -37.67   -1.95    0.00015     0.94  RIGHT     1.84447E-01   -59.80    3.02110E-03   -60.32
  -14.00   359.00      -3.75  -39.55   -3.75    0.00005     0.93  LEFT      1.49970E-01   -44.02    2.43298E-03   -43.86
  -13.00   359.00      -6.88  -42.82   -6.88    0.00034     0.91  LEFT      1.04592E-01   -28.05    1.67039E-03   -26.82
  -12.00   359.00     -13.06  -49.39  -13.06    0.00113     0.87  LEFT      5.13443E-02   -11.48    7.83703E-04    -7.23
  -11.00   359.00     -31.30  -61.28  -31.30    0.00818     1.76  RIGHT     6.28740E-03   170.38    1.99413E-04   155.43
  -10.00   359.00     -11.18  -46.14  -11.18    0.00114     1.02  RIGHT     6.37608E-02  -162.47    1.13922E-03  -166.11
   -9.00   359.00      -5.88  -41.13   -5.88    0.00060     0.99  RIGHT     1.17330E-01  -145.96    2.02902E-03  -147.95
   -8.00   359.00      -3.03  -38.36   -3.03    0.00038     0.98  RIGHT     1.62897E-01  -129.78    2.78848E-03  -131.06
   -7.00   359.00      -1.38  -36.75   -1.38    0.00025     0.98  RIGHT     1.96989E-01  -113.66    3.35940E-03  -114.50
   -6.00   359.00      -0.55  -35.92   -0.55    0.00016     0.98  RIGHT     2.16912E-01   -97.54    3.69612E-03   -98.08
   -5.00   359.00      -0.39  -35.75   -0.38    0.00009     0.98  RIGHT     2.20972E-01   -81.39    3.76876E-03   -81.70
   -4.00   359.00      -0.88  -36.23   -0.88    0.00004     0.98  RIGHT     2.08630E-01   -65.20    3.56586E-03   -65.33
   -3.00   359.00      -2.14  -37.46   -2.14    0.00000     0.98  LINEAR    1.80563E-01   -48.93    3.09575E-03   -48.92
   -2.00   359.00      -4.43  -39.72   -4.43    0.00003     0.99  LEFT      1.38644E-01   -32.49    2.38658E-03   -32.37
   -1.00   359.00      -8.60  -43.84   -8.60    0.00005     0.99  LEFT      8.58239E-02   -15.54    1.48491E-03   -15.37
    0.00   359.00     -18.97  -54.13  -18.97    0.00000     1.00  LINEAR    2.60160E-02     5.58    4.54110E-04     5.58
  -90.00   360.00    -999.99 -999.99 -999.99    0.00000     0.00            5.10004E-12  -166.57    1.76193E-22   120.72
  -89.00   360.00     -23.17 -999.99  -23.17    0.00000     0.00  LINEAR    1.60278E-02    16.65    6.00928E-13   -59.23
  -88.00   360.00     -17.89 -999.99  -17.89    0.00000     0.00  LINEAR    2.94669E-02    20.19    1.19813E-12   -58.86
  -87.00   360.00     -15.09 -999.99  -15.09    0.00000     0.00  LINEAR    4.06498E-02    24.16    1.79090E-12   -58.19
  -86.00   360.00     -13.31 -999.99  -13.31    0.00000     0.00  LINEAR    4.98780E-02    28.63    2.37841E-12   -57.21
  -85.00   360.00     -12.09 -999.99  -12.09    0.00000     0.00  LINEAR    5.74335E-02    33.71    2.95966E-12   -55.92
  -84.00   360.00     -11.20 -999.99  -11.20    0.00000     0.00  LINEAR    6.35931E-02    39.46    3.53343E-12   -54.33
  -83.00   360.00     -10.54 -999.99  -10.54    0.00000     0.00  LINEAR    6.86423E-02    45.96    4.09821E-12   -52.43
  -82.00   360.00     -10.02 -999.99  -10.02    0.00000     0.00  LINEAR    7.28876E-02    53.27    4.65217E-12   -50.22
  -81.00   360.00      -9.58 -999.99   -9.58    0.00000     0.00  LINEAR    7.66644E-02    61.41    5.19311E-12   -47.71
  -80.00   360.00      -9.17 -999.99   -9.17    0.00000     0.00  LINEAR    8.03370E-02    70.36    5.71842E-12   -44.89
  -79.00   360.00      -8.76 -999.99   -8.76    0.00000     0.00  LINEAR    8.42862E-02    80.06    6.22507E-12   -41.76
  -78.00   360.00      -8.30 -999.99   -8.30    0.00000     0.00  LINEAR    8.88832E-02    90.36    6.70956E-12   -38.33
  -77.00   360.00      -7.77 -999.99   -7.77    0.00000     0.00  LINEAR    9.44514E-02   101.06    7.16794E-12   -34.60
  -76.00   360.00      -7.17 -999.99   -7.17    0.00000     0.00  LINEAR    1.01227E-01   111.94    7.59582E-12   -30.56
  -75.00   360.00      -6.50 -999.99   -6.50    0.00000     0.00  LINEAR    1.09328E-01   122.79    7.98837E-12   -26.22
  -74.00   360.00      -5.78 -999.99   -5.78    0.00000     0.00  LINEAR    1.18747E-01   133.44    8.34037E-12   -21.58
  -73.00   360.00      -5.04 -999.99   -5.04    0.00000     0.00  LINEAR    1.29358E-01   143.80    8.64627E-12   -16.64
  -72.00   360.00      -4.29 -999.99   -4.29    0.00000     0.00  LINEAR    1.40932E-01   153.84    8.90027E-12   -11.41
  -71.00   360.00      -3.57 -999.99   -3.57    0.00000     0.00  LINEAR    1.53162E-01   163.56    9.09641E-12    -5.87
  -70.00   360.00      -2.89 -999.99   -2.89    0.00000     0.00  LINEAR    1.65682E-01   173.01    9.22870E-12    -0.04
  -69.00   360.00      -2.26 -999.99   -2.26    0.00000     0.00  LINEAR    1.78075E-01  -177.77    9.29126E-12     6.09
  -68.00   360.00      -1.70 -999.99   -1.70    0.00000     0.00  LINEAR    1.89892E-01  -168.72    9.27851E-12    12.51
  -67.00   360.00      -1.22 -999.99   -1.22    0.00000     0.00  LINEAR    2.00658E-01  -159.78    9.18534E-12    19.23
  -66.00   360.00      -0.83 -999.99   -0.83    0.00000     0.00  LINEAR    2.09880E-01  -150.91    9.00733E-12    26.23
  -65.00   360.00      -0.54 -999.99   -0.54    0.00000     0.00  LINEAR    2.17060E-01  -142.07    8.74097E-12    33.53
  -64.00   360.00      -0.36 -999.99   -0.36    0.00000     0.00  LINEAR    2.21707E-01  -133.20    8.38392E-12    41.12
  -63.00   360.00      -0.29 -999.99   -0.29    0.00000     0.00  LINEAR    2.23353E-01  -124.30    7.93524E-12    49.01
  -62.00   360.00      -0.36 -999.99   -0.36    0.00000     0.00  LINEAR    2.21570E-01  -115.31    7.39562E-12    57.19
  -61.00   360.00      -0.58 -999.99   -0.58    0.00000     0.00  LINEAR    2.15984E-01  -106.24    6.76766E-12    65.67
  -60.00   360.00      -0.98 -999.99   -0.98    0.00000     0.00  LINEAR    2.06304E-01   -97.05    6.05601E-12    74.46
  -59.00   360.00      -1.59 -999.99   -1.59    0.00000     0.00  LINEAR    1.92337E-01   -87.73    5.26761E-12    83.58
  -58.00   360.00      -2.46 -999.99   -2.46    0.00000     0.00  LINEAR    1.74011E-01   -78.28    4.41180E-12    93.07
  -57.00   360.00      -3.67 -999.99   -3.67    0.00000     0.00  LINEAR    1.51393E-01   -68.66    3.50045E-12   103.03
  -56.00   360.00      -5.35 -999.99   -5.35    0.00000     0.00  LINEAR    1.24707E-01   -58.89    2.54803E-12   113.67
  -55.00   360.00      -7.78 -999.99   -7.78    0.00000     0.00  LINEAR    9.43479E-02   -48.94    1.57216E-12   125.80
  -54.00   360.00     -11.58 -999.99  -11.58    0.00000     0.00  LINEAR    6.08861E-02   -38.78    5.99885E-13   145.45
  -53.00   360.00     -19.29 -999.99  -19.29    0.00000     0.00  LINEAR    2.50693E-02   -28.24    4.22979E-13   -61.20
  -52.00   360.00     -25.55 -999.99  -25.55    0.00000     0.00  LINEAR    1.21894E-02   160.75    1.33743E-12   -35.44
  -51.00   360.00     -13.33 -999.99  -13.33    0.00000     0.00  LINEAR    4.98148E-02   172.10    2.21066E-12   -21.86
  -50.00   360.00      -8.52 -999.99   -8.52    0.00000     0.00  LINEAR    8.66188E-02  -177.01    3.00447E-12    -9.63
  -49.00   360.00      -5.59 -999.99   -5.59    0.00000     0.00  LINEAR    1.21320E-01  -166.00    3.69493E-12     2.31
  -48.00   360.00      -3.60 -999.99   -3.60    0.00000     0.00  LINEAR    1.52596E-01  -154.83    4.26060E-12    14.26
  -47.00   360.00      -2.21 -999.99   -2.21    0.00000     0.00  LINEAR    1.79141E-01  -143.48    4.68262E-12    26.31
  -46.00   360.00      -1.26 -999.99   -1.26    0.00000     0.00  LINEAR    1.99726E-01  -131.97    4.94544E-12    38.52
  -45.00   360.00      -0.69 -999.99   -0.69    0.00000     0.00  LINEAR    2.13263E-01  -120.28    5.03773E-12    50.91
  -44.00   360.00      -0.47 -999.99   -0.47    0.00000     0.00  LINEAR    2.18880E-01  -108.42    4.95325E-12    63.51
  -43.00   360.00      -0.58 -999.99   -0.58    0.00000     0.00  LINEAR    2.15979E-01   -96.40    4.69164E-12    76.34
  -42.00   360.00      -1.07 -999.99   -1.07    0.00000     0.00  LINEAR    2.04298E-01   -84.21    4.25896E-12    89.44
  -41.00   360.00      -1.98 -999.99   -1.98    0.00000     0.00  LINEAR    1.83960E-01   -71.86    3.66816E-12   102.89
  -40.00   360.00      -3.44 -999.99   -3.44    0.00000     0.00  LINEAR    1.55499E-01   -59.37    2.93926E-12   116.83
  -39.00   360.00      -5.70 -999.99   -5.70    0.00000     0.00  LINEAR    1.19876E-01   -46.77    2.09943E-12   131.71
  -38.00   360.00      -9.38 -999.99   -9.38    0.00000     0.00  LINEAR    7.84671E-02   -34.16    1.18446E-12   149.43
  -37.00   360.00     -16.89 -999.99  -16.89    0.00000     0.00  LINEAR    3.30314E-02   -22.21    2.84169E-13  -162.22
  -36.00   360.00     -24.08 -999.99  -24.08    0.00000     0.00  LINEAR    1.44412E-02   177.19    7.87519E-13   -27.38
  -35.00   360.00     -11.50 -999.99  -11.50    0.00000     0.00  LINEAR    6.14974E-02  -172.76    1.69622E-12    -5.52
  -34.00   360.00      -6.78 -999.99   -6.78    0.00000     0.00  LINEAR    1.05845E-01  -159.68    2.52847E-12    10.83
  -33.00   360.00      -4.04 -999.99   -4.04    0.00000     0.00  LINEAR    1.45063E-01  -146.19    3.23491E-12    26.11
  -32.00   360.00      -2.32 -999.99   -2.32    0.00000     0.00  LINEAR    1.76904E-01  -132.48    3.77705E-12    41.08
  -31.00   360.00      -1.28 -999.99   -1.28    0.00000     0.00  LINEAR    1.99420E-01  -118.59    4.12397E-12    55.99
  -30.00   360.00      -0.78 -999.99   -0.78    0.00000     0.00  LINEAR    2.11094E-01  -104.55    4.25376E-12    70.94
  -29.00   360.00      -0.79 -999.99   -0.79    0.00000     0.00  LINEAR    2.10966E-01   -90.37    4.15521E-12    85.99
  -28.00   360.00      -1.31 -999.99   -1.31    0.00000     0.00  LINEAR    1.98725E-01   -76.05    3.82910E-12   101.21
  -27.00   360.00      -2.42 -999.99   -2.42    0.00000     0.00  LINEAR    1.74773E-01   -61.60    3.28892E-12   116.67
  -26.00   360.00      -4.33 -999.99   -4.33    0.00000     0.00  LINEAR    1.40243E-01   -47.04    2.56102E-12   132.60
  -25.00   360.00      -7.54 -999.99   -7.54    0.00000     0.00  LINEAR    9.69662E-02   -32.36    1.68432E-12   149.65
  -24.00   360.00     -13.76 -999.99  -13.76    0.00000     0.00  LINEAR    4.74017E-02   -17.59    7.13295E-13   172.27
  -23.00   360.00     -32.47 -999.99  -32.47    0.00000     0.00  LINEAR    5.49695E-03   177.91    3.65546E-13   -30.23
  -22.00   360.00     -11.94 -999.99  -11.94    0.00000     0.00  LINEAR    5.84462E-02  -167.55    1.35052E-12     3.87
  -21.00   360.00      -6.60 -999.99   -6.60    0.00000     0.00  LINEAR    1.08039E-01  -152.46    2.27944E-12    22.15
  -20.00   360.00      -3.69 -999.99   -3.69    0.00000     0.00  LINEAR    1.50967E-01  -137.25    3.07241E-12    38.83
  -19.00   360.00      -1.96 -999.99   -1.96    0.00000     0.00  LINEAR    1.84254E-01  -121.95    3.67452E-12    55.08
  -18.00   360.00      -1.02 -999.99   -1.02    0.00000     0.00  LINEAR    2.05474E-01  -106.56    4.04255E-12    71.19
  -17.00   360.00      -0.71 -999.99   -0.71    0.00000     0.00  LINEAR    2.12951E-01   -91.07    4.14735E-12    87.27
  -16.00   360.00      -1.00 -999.99   -1.00    0.00000     0.00  LINEAR    2.05903E-01   -75.50    3.97634E-12   103.40
  -15.00   360.00      -1.95 -999.99   -1.95    0.00000     0.00  LINEAR    1.84537E-01   -59.83    3.53503E-12   119.64
  -14.00   360.00      -3.75 -999.99   -3.75    0.00000     0.00  LINEAR    1.50077E-01   -44.05    2.84753E-12   136.11
  -13.00   360.00      -6.87 -999.99   -6.87    0.00000     0.00  LINEAR    1.04706E-01   -28.08    1.95577E-12   153.14
  -12.00   360.00     -13.04 -999.99  -13.04    0.00000     0.00  LINEAR    5.14538E-02   -11.51    9.18689E-13   172.73
  -11.00   360.00     -31.43 -999.99  -31.43    0.00000     0.00  LINEAR    6.19337E-03   170.15    2.31535E-13   -24.81
  -10.00   360.00     -11.19 -999.99  -11.19    0.00000     0.00  LINEAR    6.36843E-02  -162.49    1.33084E-12    13.86
   -9.00   360.00      -5.89 -999.99   -5.89    0.00000     0.00  LINEAR    1.17278E-01  -145.98    2.37194E-12    32.03
   -8.00   360.00      -3.04 -999.99   -3.04    0.00000     0.00  LINEAR    1.62871E-01  -129.80    3.26065E-12    48.92
   -7.00   360.00      -1.38 -999.99   -1.38    0.00000     0.00  LINEAR    1.96988E-01  -113.68    3.92883E-12    65.48
   -6.00   360.00      -0.55 -999.99   -0.55    0.00000     0.00  LINEAR    2.16932E-01   -97.55    4.32304E-12    81.91
   -5.00   360.00      -0.38 -999.99   -0.38    0.00000     0.00  LINEAR    2.21007E-01   -81.40    4.40829E-12    98.29
   -4.00   360.00      -0.88 -999.99   -0.88    0.00000     0.00  LINEAR    2.08672E-01   -65.21    4.17113E-12   114.66
   -3.00   360.00      -2.14 -999.99   -2.14    0.00000     0.00  LINEAR    1.80605E-01   -48.93    3.62133E-12   131.07
   -2.00   360.00      -4.43 -999.99   -4.43    0.00000     0.00  LINEAR    1.38679E-01   -32.49    2.79182E-12   147.62
   -1.00   360.00      -8.60 -999.99   -8.60    0.00000     0.00  LINEAR    8.58454E-02   -15.54    1.73704E-12   164.63
    0.00   360.00     -18.97 -999.99  -18.97    0.00000     0.00  LINEAR    2.60199E-02     5.58    5.31162E-13  -174.42


   AVERAGE POWER GAIN= 5.53967E-01       SOLID ANGLE USED IN AVERAGING=( 2.0000)*PI STERADIANS.








 ***** DATA CARD NO.  7   EN   0    91   361  1003 -9.00000E+01  0.00000E+00  1.00000E+00  1.00000E+00  0.00000E+00  0.00000E+00

 RUN TIME =     2.188
