1



                                 *********************************************

                                    NUMERICAL ELECTROMAGNETICS CODE (NEC-2D)

                                 *********************************************




                                     - - - - COMMENTS - - - -


                          Wire Antenna Perfect Ground                                                
                                                                                                     




                                 - - - STRUCTURE SPECIFICATION - - -

                                     COORDINATES MUST BE INPUT IN
                                     METERS OR BE SCALED TO METERS
                                     BEFORE STRUCTURE INPUT IS ENDED


  WIRE                                                                               NO. OF    FIRST  LAST     TAG
  NO.        X1         Y1         Z1          X2         Y2         Z2      RADIUS   SEG.     SEG.   SEG.     NO.
     1    0.00000    0.00000   25.00000   500.00000    0.00000   25.00000    0.02000    100        1   100       1
     2    0.00000    0.00000    0.00000     0.00000    0.00000   25.00000    0.02000      3      101   103       2
     3  500.00000    0.00000   25.00000   500.00000    0.00000    0.00000    0.02000      3      104   106       3

   TOTAL SEGMENTS USED=  106     NO. SEG. IN A SYMMETRIC CELL=  106     SYMMETRY FLAG=  0


         - MULTIPLE WIRE JUNCTIONS -
 JUNCTION    SEGMENTS  (- FOR END 1, + FOR END 2)
  NONE




                                 - - - - SEGMENTATION DATA - - - -

                                        COORDINATES IN METERS

                         I+ AND I- INDICATE THE SEGMENTS BEFORE AND AFTER I


  SEG.   COORDINATES OF SEG. CENTER     SEG.     ORIENTATION ANGLES    WIRE    CONNECTION DATA   TAG
  NO.       X         Y         Z       LENGTH     ALPHA     BETA      RADIUS    I-   I    I+    NO.
     1   2.50000   0.00000  25.00000   5.00000    0.00000   0.00000   0.02000   103    1    2      1
     2   7.50000   0.00000  25.00000   5.00000    0.00000   0.00000   0.02000     1    2    3      1
     3  12.50000   0.00000  25.00000   5.00000    0.00000   0.00000   0.02000     2    3    4      1
     4  17.50000   0.00000  25.00000   5.00000    0.00000   0.00000   0.02000     3    4    5      1
     5  22.50000   0.00000  25.00000   5.00000    0.00000   0.00000   0.02000     4    5    6      1
     6  27.50000   0.00000  25.00000   5.00000    0.00000   0.00000   0.02000     5    6    7      1
     7  32.50000   0.00000  25.00000   5.00000    0.00000   0.00000   0.02000     6    7    8      1
     8  37.50000   0.00000  25.00000   5.00000    0.00000   0.00000   0.02000     7    8    9      1
     9  42.50000   0.00000  25.00000   5.00000    0.00000   0.00000   0.02000     8    9   10      1
    10  47.50000   0.00000  25.00000   5.00000    0.00000   0.00000   0.02000     9   10   11      1
    11  52.50000   0.00000  25.00000   5.00000    0.00000   0.00000   0.02000    10   11   12      1
    12  57.50000   0.00000  25.00000   5.00000    0.00000   0.00000   0.02000    11   12   13      1
    13  62.50000   0.00000  25.00000   5.00000    0.00000   0.00000   0.02000    12   13   14      1
    14  67.50000   0.00000  25.00000   5.00000    0.00000   0.00000   0.02000    13   14   15      1
    15  72.50000   0.00000  25.00000   5.00000    0.00000   0.00000   0.02000    14   15   16      1
    16  77.50000   0.00000  25.00000   5.00000    0.00000   0.00000   0.02000    15   16   17      1
    17  82.50000   0.00000  25.00000   5.00000    0.00000   0.00000   0.02000    16   17   18      1
    18  87.50000   0.00000  25.00000   5.00000    0.00000   0.00000   0.02000    17   18   19      1
    19  92.50000   0.00000  25.00000   5.00000    0.00000   0.00000   0.02000    18   19   20      1
    20  97.50000   0.00000  25.00000   5.00000    0.00000   0.00000   0.02000    19   20   21      1
    21 102.50000   0.00000  25.00000   5.00000    0.00000   0.00000   0.02000    20   21   22      1
    22 107.50000   0.00000  25.00000   5.00000    0.00000   0.00000   0.02000    21   22   23      1
    23 112.50000   0.00000  25.00000   5.00000    0.00000   0.00000   0.02000    22   23   24      1
    24 117.50000   0.00000  25.00000   5.00000    0.00000   0.00000   0.02000    23   24   25      1
    25 122.50000   0.00000  25.00000   5.00000    0.00000   0.00000   0.02000    24   25   26      1
    26 127.50000   0.00000  25.00000   5.00000    0.00000   0.00000   0.02000    25   26   27      1
    27 132.50000   0.00000  25.00000   5.00000    0.00000   0.00000   0.02000    26   27   28      1
    28 137.50000   0.00000  25.00000   5.00000    0.00000   0.00000   0.02000    27   28   29      1
    29 142.50000   0.00000  25.00000   5.00000    0.00000   0.00000   0.02000    28   29   30      1
    30 147.50000   0.00000  25.00000   5.00000    0.00000   0.00000   0.02000    29   30   31      1
    31 152.50000   0.00000  25.00000   5.00000    0.00000   0.00000   0.02000    30   31   32      1
    32 157.50000   0.00000  25.00000   5.00000    0.00000   0.00000   0.02000    31   32   33      1
    33 162.50000   0.00000  25.00000   5.00000    0.00000   0.00000   0.02000    32   33   34      1
    34 167.50000   0.00000  25.00000   5.00000    0.00000   0.00000   0.02000    33   34   35      1
    35 172.50000   0.00000  25.00000   5.00000    0.00000   0.00000   0.02000    34   35   36      1
    36 177.50000   0.00000  25.00000   5.00000    0.00000   0.00000   0.02000    35   36   37      1
    37 182.50000   0.00000  25.00000   5.00000    0.00000   0.00000   0.02000    36   37   38      1
    38 187.50000   0.00000  25.00000   5.00000    0.00000   0.00000   0.02000    37   38   39      1
    39 192.50000   0.00000  25.00000   5.00000    0.00000   0.00000   0.02000    38   39   40      1
    40 197.50000   0.00000  25.00000   5.00000    0.00000   0.00000   0.02000    39   40   41      1
    41 202.50000   0.00000  25.00000   5.00000    0.00000   0.00000   0.02000    40   41   42      1
    42 207.50000   0.00000  25.00000   5.00000    0.00000   0.00000   0.02000    41   42   43      1
    43 212.50000   0.00000  25.00000   5.00000    0.00000   0.00000   0.02000    42   43   44      1
    44 217.50000   0.00000  25.00000   5.00000    0.00000   0.00000   0.02000    43   44   45      1
    45 222.50000   0.00000  25.00000   5.00000    0.00000   0.00000   0.02000    44   45   46      1
    46 227.50000   0.00000  25.00000   5.00000    0.00000   0.00000   0.02000    45   46   47      1
    47 232.50000   0.00000  25.00000   5.00000    0.00000   0.00000   0.02000    46   47   48      1
    48 237.50000   0.00000  25.00000   5.00000    0.00000   0.00000   0.02000    47   48   49      1
    49 242.50000   0.00000  25.00000   5.00000    0.00000   0.00000   0.02000    48   49   50      1
    50 247.50000   0.00000  25.00000   5.00000    0.00000   0.00000   0.02000    49   50   51      1
    51 252.50000   0.00000  25.00000   5.00000    0.00000   0.00000   0.02000    50   51   52      1
    52 257.50000   0.00000  25.00000   5.00000    0.00000   0.00000   0.02000    51   52   53      1
    53 262.50000   0.00000  25.00000   5.00000    0.00000   0.00000   0.02000    52   53   54      1
    54 267.50000   0.00000  25.00000   5.00000    0.00000   0.00000   0.02000    53   54   55      1
    55 272.50000   0.00000  25.00000   5.00000    0.00000   0.00000   0.02000    54   55   56      1
    56 277.50000   0.00000  25.00000   5.00000    0.00000   0.00000   0.02000    55   56   57      1
    57 282.50000   0.00000  25.00000   5.00000    0.00000   0.00000   0.02000    56   57   58      1
    58 287.50000   0.00000  25.00000   5.00000    0.00000   0.00000   0.02000    57   58   59      1
    59 292.50000   0.00000  25.00000   5.00000    0.00000   0.00000   0.02000    58   59   60      1
    60 297.50000   0.00000  25.00000   5.00000    0.00000   0.00000   0.02000    59   60   61      1
    61 302.50000   0.00000  25.00000   5.00000    0.00000   0.00000   0.02000    60   61   62      1
    62 307.50000   0.00000  25.00000   5.00000    0.00000   0.00000   0.02000    61   62   63      1
    63 312.50000   0.00000  25.00000   5.00000    0.00000   0.00000   0.02000    62   63   64      1
    64 317.50000   0.00000  25.00000   5.00000    0.00000   0.00000   0.02000    63   64   65      1
    65 322.50000   0.00000  25.00000   5.00000    0.00000   0.00000   0.02000    64   65   66      1
    66 327.50000   0.00000  25.00000   5.00000    0.00000   0.00000   0.02000    65   66   67      1
    67 332.50000   0.00000  25.00000   5.00000    0.00000   0.00000   0.02000    66   67   68      1
    68 337.50000   0.00000  25.00000   5.00000    0.00000   0.00000   0.02000    67   68   69      1
    69 342.50000   0.00000  25.00000   5.00000    0.00000   0.00000   0.02000    68   69   70      1
    70 347.50000   0.00000  25.00000   5.00000    0.00000   0.00000   0.02000    69   70   71      1
    71 352.50000   0.00000  25.00000   5.00000    0.00000   0.00000   0.02000    70   71   72      1
    72 357.50000   0.00000  25.00000   5.00000    0.00000   0.00000   0.02000    71   72   73      1
    73 362.50000   0.00000  25.00000   5.00000    0.00000   0.00000   0.02000    72   73   74      1
    74 367.50000   0.00000  25.00000   5.00000    0.00000   0.00000   0.02000    73   74   75      1
    75 372.50000   0.00000  25.00000   5.00000    0.00000   0.00000   0.02000    74   75   76      1
    76 377.50000   0.00000  25.00000   5.00000    0.00000   0.00000   0.02000    75   76   77      1
    77 382.50000   0.00000  25.00000   5.00000    0.00000   0.00000   0.02000    76   77   78      1
    78 387.50000   0.00000  25.00000   5.00000    0.00000   0.00000   0.02000    77   78   79      1
    79 392.50000   0.00000  25.00000   5.00000    0.00000   0.00000   0.02000    78   79   80      1
    80 397.50000   0.00000  25.00000   5.00000    0.00000   0.00000   0.02000    79   80   81      1
    81 402.50000   0.00000  25.00000   5.00000    0.00000   0.00000   0.02000    80   81   82      1
    82 407.50000   0.00000  25.00000   5.00000    0.00000   0.00000   0.02000    81   82   83      1
    83 412.50000   0.00000  25.00000   5.00000    0.00000   0.00000   0.02000    82   83   84      1
    84 417.50000   0.00000  25.00000   5.00000    0.00000   0.00000   0.02000    83   84   85      1
    85 422.50000   0.00000  25.00000   5.00000    0.00000   0.00000   0.02000    84   85   86      1
    86 427.50000   0.00000  25.00000   5.00000    0.00000   0.00000   0.02000    85   86   87      1
    87 432.50000   0.00000  25.00000   5.00000    0.00000   0.00000   0.02000    86   87   88      1
    88 437.50000   0.00000  25.00000   5.00000    0.00000   0.00000   0.02000    87   88   89      1
    89 442.50000   0.00000  25.00000   5.00000    0.00000   0.00000   0.02000    88   89   90      1
    90 447.50000   0.00000  25.00000   5.00000    0.00000   0.00000   0.02000    89   90   91      1
    91 452.50000   0.00000  25.00000   5.00000    0.00000   0.00000   0.02000    90   91   92      1
    92 457.50000   0.00000  25.00000   5.00000    0.00000   0.00000   0.02000    91   92   93      1
    93 462.50000   0.00000  25.00000   5.00000    0.00000   0.00000   0.02000    92   93   94      1
    94 467.50000   0.00000  25.00000   5.00000    0.00000   0.00000   0.02000    93   94   95      1
    95 472.50000   0.00000  25.00000   5.00000    0.00000   0.00000   0.02000    94   95   96      1
    96 477.50000   0.00000  25.00000   5.00000    0.00000   0.00000   0.02000    95   96   97      1
    97 482.50000   0.00000  25.00000   5.00000    0.00000   0.00000   0.02000    96   97   98      1
    98 487.50000   0.00000  25.00000   5.00000    0.00000   0.00000   0.02000    97   98   99      1
    99 492.50000   0.00000  25.00000   5.00000    0.00000   0.00000   0.02000    98   99  100      1
   100 497.50000   0.00000  25.00000   5.00000    0.00000   0.00000   0.02000    99  100  104      1
   101   0.00000   0.00000   4.16667   8.33333   90.00000   0.00000   0.02000     0  101  102      2
   102   0.00000   0.00000  12.50000   8.33333   90.00000   0.00000   0.02000   101  102  103      2
   103   0.00000   0.00000  20.83333   8.33333   90.00000   0.00000   0.02000   102  103    1      2
   104 500.00000   0.00000  20.83333   8.33333  -90.00000   0.00000   0.02000   100  104  105      3
   105 500.00000   0.00000  12.50000   8.33333  -90.00000   0.00000   0.02000   104  105  106      3
   106 500.00000   0.00000   4.16667   8.33333  -90.00000   0.00000   0.02000   105  106    0      3






 ***** DATA CARD NO.  1   LD   0     3     1     3  5.10460E+02  0.00000E+00  0.00000E+00  0.00000E+00  0.00000E+00  0.00000E+00
 ***** DATA CARD NO.  2   GN   1     0     0     0  0.00000E+00  0.00000E+00  0.00000E+00  0.00000E+00  0.00000E+00  0.00000E+00
 ***** DATA CARD NO.  3   EK   0     0     0     0  0.00000E+00  0.00000E+00  0.00000E+00  0.00000E+00  0.00000E+00  0.00000E+00
 ***** DATA CARD NO.  4   EX   0     1     1     0  1.00000E+00  0.00000E+00  0.00000E+00  0.00000E+00  0.00000E+00  0.00000E+00
 ***** DATA CARD NO.  5   FR   0     0     0     0  3.00000E+00  0.00000E+00  0.00000E+00  0.00000E+00  0.00000E+00  0.00000E+00
 ***** DATA CARD NO.  6   RP   0    91   361  1003 -9.00000E+01  0.00000E+00  1.00000E+00  1.00000E+00  0.00000E+00  0.00000E+00




                                 - - - - - - FREQUENCY - - - - - -

                                    FREQUENCY= 3.0000E+00 MHZ
                                    WAVELENGTH= 9.9933E+01 METERS




                    APPROXIMATE INTEGRATION EMPLOYED FOR SEGMENTS MORE THAN   1.000 WAVELENGTHS APART

                    THE EXTENDED THIN WIRE KERNEL WILL BE USED



                               - - - STRUCTURE IMPEDANCE LOADING - - -


       LOCATION          RESISTANCE   INDUCTANCE  CAPACITANCE       IMPEDANCE (OHMS)     CONDUCTIVITY    TYPE
    ITAG FROM THRU          OHMS        HENRYS       FARADS        REAL      IMAGINARY    MHOS/METER

       3    1    3      5.1046E+02                                                                     SERIES 



                                  - - - ANTENNA ENVIRONMENT - - -

                                          PERFECT GROUND



                                - - - MATRIX TIMING - - -

                        FILL=    0.000 SEC.,  FACTOR=    0.000 SEC.



                                          - - - ANTENNA INPUT PARAMETERS - - -

   TAG   SEG.    VOLTAGE (VOLTS)         CURRENT (AMPS)         IMPEDANCE (OHMS)        ADMITTANCE (MHOS)      POWER
   NO.   NO.    REAL        IMAG.       REAL        IMAG.       REAL        IMAG.       REAL        IMAG.     (WATTS)
     1     1 1.00000E+00 0.00000E+00 1.67235E-03 6.71518E-04 5.14935E+02-2.06767E+02 1.67235E-03 6.71518E-04 8.36176E-04



                             - - - CURRENTS AND LOCATION - - -

                                 DISTANCES IN WAVELENGTHS


  SEG.  TAG    COORD. OF SEG. CENTER     SEG.            - - - CURRENT (AMPS) - - -
  NO.   NO.     X        Y        Z      LENGTH     REAL        IMAG.       MAG.        PHASE
     1    1   0.0250   0.0000   0.2502  0.05003   1.6724E-03  6.7152E-04  1.8021E-03   21.877
     2    1   0.0751   0.0000   0.2502  0.05003   1.4874E-03 -5.5222E-05  1.4884E-03   -2.126
     3    1   0.1251   0.0000   0.2502  0.05003   1.1801E-03 -8.2026E-04  1.4372E-03  -34.802
     4    1   0.1751   0.0000   0.2502  0.05003   7.7727E-04 -1.4655E-03  1.6589E-03  -62.060
     5    1   0.2252   0.0000   0.2502  0.05003   3.1569E-04 -1.9478E-03  1.9733E-03  -80.794
     6    1   0.2752   0.0000   0.2502  0.05003  -1.6180E-04 -2.2283E-03  2.2342E-03  -94.153
     7    1   0.3252   0.0000   0.2502  0.05003  -6.1059E-04 -2.2846E-03  2.3648E-03 -104.964
     8    1   0.3753   0.0000   0.2502  0.05003  -9.8877E-04 -2.1145E-03  2.3343E-03 -115.061
     9    1   0.4253   0.0000   0.2502  0.05003  -1.2612E-03 -1.7372E-03  2.1468E-03 -125.980
    10    1   0.4753   0.0000   0.2502  0.05003  -1.4031E-03 -1.1913E-03  1.8406E-03 -139.668
    11    1   0.5254   0.0000   0.2502  0.05003  -1.4023E-03 -5.3126E-04  1.4996E-03 -159.251
    12    1   0.5754   0.0000   0.2502  0.05003  -1.2604E-03  1.7754E-04  1.2728E-03  171.982
    13    1   0.6254   0.0000   0.2502  0.05003  -9.9276E-04  8.6543E-04  1.3170E-03  138.920
    14    1   0.6755   0.0000   0.2502  0.05003  -6.2683E-04  1.4651E-03  1.5935E-03  113.164
    15    1   0.7255   0.0000   0.2502  0.05003  -1.9946E-04  1.9180E-03  1.9284E-03   95.937
    16    1   0.7755   0.0000   0.2502  0.05003   2.4670E-04  2.1803E-03  2.1942E-03   83.544
    17    1   0.8256   0.0000   0.2502  0.05003   6.6740E-04  2.2268E-03  2.3247E-03   73.316
    18    1   0.8756   0.0000   0.2502  0.05003   1.0211E-03  2.0536E-03  2.2934E-03   63.563
    19    1   0.9256   0.0000   0.2502  0.05003   1.2730E-03  1.6782E-03  2.1064E-03   52.819
    20    1   0.9757   0.0000   0.2502  0.05003   1.3984E-03  1.1381E-03  1.8030E-03   39.140
    21    1   1.0257   0.0000   0.2502  0.05003   1.3854E-03  4.8656E-04  1.4683E-03   19.352
    22    1   1.0757   0.0000   0.2502  0.05003   1.2353E-03 -2.1207E-04  1.2534E-03   -9.741
    23    1   1.1258   0.0000   0.2502  0.05003   9.6335E-04 -8.8905E-04  1.3109E-03  -42.703
    24    1   1.1758   0.0000   0.2502  0.05003   5.9649E-04 -1.4779E-03  1.5937E-03  -68.020
    25    1   1.2258   0.0000   0.2502  0.05003   1.7103E-04 -1.9208E-03  1.9284E-03  -84.912
    26    1   1.2759   0.0000   0.2502  0.05003  -2.7100E-04 -2.1744E-03  2.1912E-03  -97.104
    27    1   1.3259   0.0000   0.2502  0.05003  -6.8605E-04 -2.2139E-03  2.3178E-03 -107.217
    28    1   1.3759   0.0000   0.2502  0.05003  -1.0333E-03 -2.0358E-03  2.2830E-03 -116.910
    29    1   1.4260   0.0000   0.2502  0.05003  -1.2785E-03 -1.6575E-03  2.0933E-03 -127.643
    30    1   1.4760   0.0000   0.2502  0.05003  -1.3977E-03 -1.1166E-03  1.7890E-03 -141.379
    31    1   1.5260   0.0000   0.2502  0.05003  -1.3793E-03 -4.6619E-04  1.4559E-03 -161.325
    32    1   1.5761   0.0000   0.2502  0.05003  -1.2251E-03  2.2974E-04  1.2465E-03  169.379
    33    1   1.6261   0.0000   0.2502  0.05003  -9.5048E-04  9.0279E-04  1.3109E-03  136.474
    34    1   1.6761   0.0000   0.2502  0.05003  -5.8247E-04  1.4869E-03  1.5969E-03  111.392
    35    1   1.7262   0.0000   0.2502  0.05003  -1.5732E-04  1.9246E-03  1.9311E-03   94.673
    36    1   1.7762   0.0000   0.2502  0.05003   2.8313E-04  2.1732E-03  2.1915E-03   82.577
    37    1   1.8262   0.0000   0.2502  0.05003   6.9559E-04  2.2082E-03  2.3151E-03   72.515
    38    1   1.8763   0.0000   0.2502  0.05003   1.0395E-03  2.0262E-03  2.2773E-03   62.840
    39    1   1.9263   0.0000   0.2502  0.05003   1.2812E-03  1.6453E-03  2.0853E-03   52.092
    40    1   1.9763   0.0000   0.2502  0.05003   1.3969E-03  1.1029E-03  1.7798E-03   38.291
    41    1   2.0264   0.0000   0.2502  0.05003   1.3754E-03  4.5225E-04  1.4478E-03   18.202
    42    1   2.0764   0.0000   0.2502  0.05003   1.2187E-03 -2.4265E-04  1.2426E-03  -11.260
    43    1   2.1264   0.0000   0.2502  0.05003   9.4245E-04 -9.1360E-04  1.3126E-03  -44.109
    44    1   2.1765   0.0000   0.2502  0.05003   5.7374E-04 -1.4947E-03  1.6010E-03  -69.001
    45    1   2.2265   0.0000   0.2502  0.05003   1.4882E-04 -1.9290E-03  1.9347E-03  -85.588
    46    1   2.2765   0.0000   0.2502  0.05003  -2.9056E-04 -2.1737E-03  2.1931E-03  -97.614
    47    1   2.3266   0.0000   0.2502  0.05003  -7.0127E-04 -2.2050E-03  2.3138E-03 -107.642
    48    1   2.3766   0.0000   0.2502  0.05003  -1.0430E-03 -2.0198E-03  2.2732E-03 -117.311
    49    1   2.4266   0.0000   0.2502  0.05003  -1.2822E-03 -1.6362E-03  2.0788E-03 -128.084
    50    1   2.4767   0.0000   0.2502  0.05003  -1.3956E-03 -1.0921E-03  1.7721E-03 -141.956
    51    1   2.5267   0.0000   0.2502  0.05003  -1.3720E-03 -4.4071E-04  1.4410E-03 -162.192
    52    1   2.5767   0.0000   0.2502  0.05003  -1.2137E-03  2.5390E-04  1.2400E-03  168.185
    53    1   2.6268   0.0000   0.2502  0.05003  -9.3651E-04  9.2354E-04  1.3153E-03  135.399
    54    1   2.6768   0.0000   0.2502  0.05003  -5.6754E-04  1.5025E-03  1.6061E-03  110.693
    55    1   2.7268   0.0000   0.2502  0.05003  -1.4306E-04  1.9339E-03  1.9392E-03   94.231
    56    1   2.7769   0.0000   0.2502  0.05003   2.9527E-04  2.1754E-03  2.1954E-03   82.271
    57    1   2.8269   0.0000   0.2502  0.05003   7.0444E-04  2.2033E-03  2.3132E-03   72.270
    58    1   2.8769   0.0000   0.2502  0.05003   1.0444E-03  2.0149E-03  2.2695E-03   62.601
    59    1   2.9270   0.0000   0.2502  0.05003   1.2817E-03  1.6286E-03  2.0725E-03   51.797
    60    1   2.9770   0.0000   0.2502  0.05003   1.3933E-03  1.0824E-03  1.7643E-03   37.841
    61    1   3.0270   0.0000   0.2502  0.05003   1.3683E-03  4.2983E-04  1.4342E-03   17.439
    62    1   3.0771   0.0000   0.2502  0.05003   1.2091E-03 -2.6499E-04  1.2378E-03  -12.361
    63    1   3.1271   0.0000   0.2502  0.05003   9.3159E-04 -9.3385E-04  1.3191E-03  -45.069
    64    1   3.1771   0.0000   0.2502  0.05003   5.6292E-04 -1.5111E-03  1.6125E-03  -69.568
    65    1   3.2272   0.0000   0.2502  0.05003   1.3931E-04 -1.9400E-03  1.9450E-03  -85.893
    66    1   3.2772   0.0000   0.2502  0.05003  -2.9767E-04 -2.1784E-03  2.1986E-03  -97.781
    67    1   3.3272   0.0000   0.2502  0.05003  -7.0519E-04 -2.2029E-03  2.3130E-03 -107.751
    68    1   3.3773   0.0000   0.2502  0.05003  -1.0433E-03 -2.0110E-03  2.2655E-03 -117.421
    69    1   3.4273   0.0000   0.2502  0.05003  -1.2791E-03 -1.6215E-03  2.0653E-03 -128.267
    70    1   3.4773   0.0000   0.2502  0.05003  -1.3893E-03 -1.0726E-03  1.7552E-03 -142.330
    71    1   3.5274   0.0000   0.2502  0.05003  -1.3635E-03 -4.1826E-04  1.4262E-03 -162.946
    72    1   3.5774   0.0000   0.2502  0.05003  -1.2042E-03  2.7740E-04  1.2357E-03  167.027
    73    1   3.6274   0.0000   0.2502  0.05003  -9.2712E-04  9.4602E-04  1.3246E-03  134.422
    74    1   3.6775   0.0000   0.2502  0.05003  -5.5963E-04  1.5219E-03  1.6215E-03  110.190
    75    1   3.7275   0.0000   0.2502  0.05003  -1.3778E-04  1.9484E-03  1.9533E-03   94.045
    76    1   3.7775   0.0000   0.2502  0.05003   2.9705E-04  2.1835E-03  2.2036E-03   82.253
    77    1   3.8276   0.0000   0.2502  0.05003   7.0228E-04  2.2041E-03  2.3133E-03   72.327
    78    1   3.8776   0.0000   0.2502  0.05003   1.0383E-03  2.0079E-03  2.2605E-03   62.657
    79    1   3.9276   0.0000   0.2502  0.05003   1.2723E-03  1.6142E-03  2.0553E-03   51.755
    80    1   3.9777   0.0000   0.2502  0.05003   1.3815E-03  1.0613E-03  1.7421E-03   37.533
    81    1   4.0277   0.0000   0.2502  0.05003   1.3556E-03  4.0373E-04  1.4144E-03   16.585
    82    1   4.0777   0.0000   0.2502  0.05003   1.1973E-03 -2.9414E-04  1.2329E-03  -13.803
    83    1   4.1278   0.0000   0.2502  0.05003   9.2236E-04 -9.6365E-04  1.3339E-03  -46.254
    84    1   4.1778   0.0000   0.2502  0.05003   5.5806E-04 -1.5389E-03  1.6370E-03  -70.068
    85    1   4.2278   0.0000   0.2502  0.05003   1.4024E-04 -1.9632E-03  1.9682E-03  -85.914
    86    1   4.2779   0.0000   0.2502  0.05003  -2.9005E-04 -2.1945E-03  2.2136E-03  -97.529
    87    1   4.3279   0.0000   0.2502  0.05003  -6.9065E-04 -2.2098E-03  2.3152E-03 -107.356
    88    1   4.3779   0.0000   0.2502  0.05003  -1.0225E-03 -2.0070E-03  2.2525E-03 -116.997
    89    1   4.4280   0.0000   0.2502  0.05003  -1.2533E-03 -1.6057E-03  2.0369E-03 -127.974
    90    1   4.4780   0.0000   0.2502  0.05003  -1.3611E-03 -1.0448E-03  1.7158E-03 -142.490
    91    1   4.5280   0.0000   0.2502  0.05003  -1.3359E-03 -3.7906E-04  1.3886E-03 -164.158
    92    1   4.5781   0.0000   0.2502  0.05003  -1.1810E-03  3.2624E-04  1.2252E-03  164.557
    93    1   4.6281   0.0000   0.2502  0.05003  -9.1256E-04  1.0018E-03  1.3551E-03  132.330
    94    1   4.6781   0.0000   0.2502  0.05003  -5.5796E-04  1.5810E-03  1.6766E-03  109.439
    95    1   4.7282   0.0000   0.2502  0.05003  -1.5304E-04  2.0061E-03  2.0120E-03   94.362
    96    1   4.7782   0.0000   0.2502  0.05003   2.6146E-04  2.2342E-03  2.2495E-03   83.325
    97    1   4.8282   0.0000   0.2502  0.05003   6.4402E-04  2.2410E-03  2.3317E-03   73.967
    98    1   4.8783   0.0000   0.2502  0.05003   9.5651E-04  2.0232E-03  2.2379E-03   64.696
    99    1   4.9283   0.0000   0.2502  0.05003   1.1682E-03  1.5983E-03  1.9797E-03   53.838
   100    1   4.9783   0.0000   0.2502  0.05003   1.2588E-03  1.0027E-03  1.6094E-03   38.540
   101    2   0.0000   0.0000   0.0417  0.08339   5.6294E-04  1.2005E-04  5.7560E-04   12.039
   102    2   0.0000   0.0000   0.1251  0.08339   1.3379E-03  3.5522E-04  1.3842E-03   14.870
   103    2   0.0000   0.0000   0.2085  0.08339   1.6984E-03  5.9452E-04  1.7994E-03   19.293
   104    3   5.0033   0.0000   0.2085  0.08339   1.1695E-03  1.4723E-04  1.1788E-03    7.175
   105    3   5.0033   0.0000   0.1251  0.08339   7.3889E-04 -2.9649E-04  7.9616E-04  -21.864
   106    3   5.0033   0.0000   0.0417  0.08339   2.6352E-04 -1.7892E-04  3.1852E-04  -34.176



                                        - - - POWER BUDGET - - -

                                           INPUT POWER   = 8.3618E-04 WATTS
                                           RADIATED POWER= 2.9386E-04 WATTS
                                           STRUCTURE LOSS= 5.4232E-04 WATTS
                                           NETWORK LOSS  = 0.0000E+00 WATTS
                                           EFFICIENCY    =  35.14 PERCENT



                                                - - - RADIATION PATTERNS - - -

  - - ANGLES - -           - POWER GAINS -       - - - POLARIZATION - - -    - - - E(THETA) - - -    - - - E(PHI) - - -
  THETA     PHI        VERT.   HOR.    TOTAL      AXIAL     TILT   SENSE     MAGNITUDE    PHASE      MAGNITUDE    PHASE 
 DEGREES  DEGREES       DB      DB      DB        RATIO     DEG.              VOLTS/M    DEGREES      VOLTS/M    DEGREES
  -90.00     0.00     -11.20 -999.99  -11.20    0.00000     0.00  LINEAR    6.16376E-02   -45.46    0.00000E+00     0.00
  -89.00     0.00     -11.31 -999.99  -11.31    0.00000     0.00  LINEAR    6.08789E-02   -45.60    0.00000E+00     0.00
  -88.00     0.00     -11.64 -999.99  -11.64    0.00000     0.00  LINEAR    5.86119E-02   -46.06    0.00000E+00     0.00
  -87.00     0.00     -12.22 -999.99  -12.22    0.00000     0.00  LINEAR    5.48670E-02   -47.00    0.00000E+00     0.00
  -86.00     0.00     -13.07 -999.99  -13.07    0.00000     0.00  LINEAR    4.97116E-02   -48.71    0.00000E+00     0.00
  -85.00     0.00     -14.27 -999.99  -14.27    0.00000     0.00  LINEAR    4.32880E-02   -51.83    0.00000E+00     0.00
  -84.00     0.00     -15.90 -999.99  -15.90    0.00000     0.00  LINEAR    3.59176E-02   -57.69    0.00000E+00     0.00
  -83.00     0.00     -17.93 -999.99  -17.93    0.00000     0.00  LINEAR    2.84120E-02   -69.24    0.00000E+00     0.00
  -82.00     0.00     -19.78 -999.99  -19.78    0.00000     0.00  LINEAR    2.29603E-02   -91.68    0.00000E+00     0.00
  -81.00     0.00     -19.49 -999.99  -19.49    0.00000     0.00  LINEAR    2.37550E-02  -123.35    0.00000E+00     0.00
  -80.00     0.00     -16.82 -999.99  -16.82    0.00000     0.00  LINEAR    3.22926E-02  -146.91    0.00000E+00     0.00
  -79.00     0.00     -13.80 -999.99  -13.80    0.00000     0.00  LINEAR    4.57428E-02  -158.54    0.00000E+00     0.00
  -78.00     0.00     -11.16 -999.99  -11.16    0.00000     0.00  LINEAR    6.19876E-02  -163.51    0.00000E+00     0.00
  -77.00     0.00      -8.93 -999.99   -8.93    0.00000     0.00  LINEAR    8.00906E-02  -165.03    0.00000E+00     0.00
  -76.00     0.00      -7.04 -999.99   -7.04    0.00000     0.00  LINEAR    9.95634E-02  -164.59    0.00000E+00     0.00
  -75.00     0.00      -5.41 -999.99   -5.41    0.00000     0.00  LINEAR    1.20057E-01  -162.90    0.00000E+00     0.00
  -74.00     0.00      -4.00 -999.99   -4.00    0.00000     0.00  LINEAR    1.41255E-01  -160.34    0.00000E+00     0.00
  -73.00     0.00      -2.77 -999.99   -2.77    0.00000     0.00  LINEAR    1.62829E-01  -157.10    0.00000E+00     0.00
  -72.00     0.00      -1.69 -999.99   -1.69    0.00000     0.00  LINEAR    1.84422E-01  -153.33    0.00000E+00     0.00
  -71.00     0.00      -0.74 -999.99   -0.74    0.00000     0.00  LINEAR    2.05642E-01  -149.09    0.00000E+00     0.00
  -70.00     0.00       0.08 -999.99    0.08    0.00000     0.00  LINEAR    2.26055E-01  -144.46    0.00000E+00     0.00
  -69.00     0.00       0.79 -999.99    0.79    0.00000     0.00  LINEAR    2.45193E-01  -139.45    0.00000E+00     0.00
  -68.00     0.00       1.38 -999.99    1.38    0.00000     0.00  LINEAR    2.62552E-01  -134.11    0.00000E+00     0.00
  -67.00     0.00       1.87 -999.99    1.87    0.00000     0.00  LINEAR    2.77603E-01  -128.45    0.00000E+00     0.00
  -66.00     0.00       2.24 -999.99    2.24    0.00000     0.00  LINEAR    2.89806E-01  -122.49    0.00000E+00     0.00
  -65.00     0.00       2.50 -999.99    2.50    0.00000     0.00  LINEAR    2.98616E-01  -116.26    0.00000E+00     0.00
  -64.00     0.00       2.64 -999.99    2.64    0.00000     0.00  LINEAR    3.03506E-01  -109.76    0.00000E+00     0.00
  -63.00     0.00       2.66 -999.99    2.66    0.00000     0.00  LINEAR    3.03986E-01  -103.00    0.00000E+00     0.00
  -62.00     0.00       2.53 -999.99    2.53    0.00000     0.00  LINEAR    2.99621E-01   -96.02    0.00000E+00     0.00
  -61.00     0.00       2.25 -999.99    2.25    0.00000     0.00  LINEAR    2.90061E-01   -88.82    0.00000E+00     0.00
  -60.00     0.00       1.79 -999.99    1.79    0.00000     0.00  LINEAR    2.75062E-01   -81.44    0.00000E+00     0.00
  -59.00     0.00       1.11 -999.99    1.11    0.00000     0.00  LINEAR    2.54513E-01   -73.92    0.00000E+00     0.00
  -58.00     0.00       0.17 -999.99    0.17    0.00000     0.00  LINEAR    2.28464E-01   -66.31    0.00000E+00     0.00
  -57.00     0.00      -1.11 -999.99   -1.11    0.00000     0.00  LINEAR    1.97147E-01   -58.75    0.00000E+00     0.00
  -56.00     0.00      -2.86 -999.99   -2.86    0.00000     0.00  LINEAR    1.61015E-01   -51.47    0.00000E+00     0.00
  -55.00     0.00      -5.36 -999.99   -5.36    0.00000     0.00  LINEAR    1.20788E-01   -45.06    0.00000E+00     0.00
  -54.00     0.00      -9.20 -999.99   -9.20    0.00000     0.00  LINEAR    7.76535E-02   -41.53    0.00000E+00     0.00
  -53.00     0.00     -16.12 -999.99  -16.12    0.00000     0.00  LINEAR    3.50039E-02   -52.94    0.00000E+00     0.00
  -52.00     0.00     -17.91 -999.99  -17.91    0.00000     0.00  LINEAR    2.84844E-02  -140.63    0.00000E+00     0.00
  -51.00     0.00     -10.05 -999.99  -10.05    0.00000     0.00  LINEAR    7.03884E-02  -160.29    0.00000E+00     0.00
  -50.00     0.00      -5.77 -999.99   -5.77    0.00000     0.00  LINEAR    1.15188E-01  -157.04    0.00000E+00     0.00
  -49.00     0.00      -3.06 -999.99   -3.06    0.00000     0.00  LINEAR    1.57472E-01  -149.64    0.00000E+00     0.00
  -48.00     0.00      -1.19 -999.99   -1.19    0.00000     0.00  LINEAR    1.95151E-01  -140.72    0.00000E+00     0.00
  -47.00     0.00       0.10 -999.99    0.10    0.00000     0.00  LINEAR    2.26542E-01  -131.00    0.00000E+00     0.00
  -46.00     0.00       0.96 -999.99    0.96    0.00000     0.00  LINEAR    2.50169E-01  -120.78    0.00000E+00     0.00
  -45.00     0.00       1.46 -999.99    1.46    0.00000     0.00  LINEAR    2.64791E-01  -110.20    0.00000E+00     0.00
  -44.00     0.00       1.61 -999.99    1.61    0.00000     0.00  LINEAR    2.69464E-01   -99.33    0.00000E+00     0.00
  -43.00     0.00       1.42 -999.99    1.42    0.00000     0.00  LINEAR    2.63606E-01   -88.24    0.00000E+00     0.00
  -42.00     0.00       0.85 -999.99    0.85    0.00000     0.00  LINEAR    2.47066E-01   -77.00    0.00000E+00     0.00
  -41.00     0.00      -0.15 -999.99   -0.15    0.00000     0.00  LINEAR    2.20165E-01   -65.68    0.00000E+00     0.00
  -40.00     0.00      -1.72 -999.99   -1.72    0.00000     0.00  LINEAR    1.83736E-01   -54.43    0.00000E+00     0.00
  -39.00     0.00      -4.13 -999.99   -4.13    0.00000     0.00  LINEAR    1.39136E-01   -43.62    0.00000E+00     0.00
  -38.00     0.00      -8.08 -999.99   -8.08    0.00000     0.00  LINEAR    8.83015E-02   -34.45    0.00000E+00     0.00
  -37.00     0.00     -16.24 -999.99  -16.24    0.00000     0.00  LINEAR    3.45311E-02   -35.94    0.00000E+00     0.00
  -36.00     0.00     -17.88 -999.99  -17.88    0.00000     0.00  LINEAR    2.85707E-02  -152.63    0.00000E+00     0.00
  -35.00     0.00      -8.69 -999.99   -8.69    0.00000     0.00  LINEAR    8.23550E-02  -158.25    0.00000E+00     0.00
  -34.00     0.00      -4.46 -999.99   -4.46    0.00000     0.00  LINEAR    1.33957E-01  -148.80    0.00000E+00     0.00
  -33.00     0.00      -1.94 -999.99   -1.94    0.00000     0.00  LINEAR    1.79029E-01  -137.04    0.00000E+00     0.00
  -32.00     0.00      -0.36 -999.99   -0.36    0.00000     0.00  LINEAR    2.14833E-01  -124.43    0.00000E+00     0.00
  -31.00     0.00       0.57 -999.99    0.57    0.00000     0.00  LINEAR    2.39154E-01  -111.36    0.00000E+00     0.00
  -30.00     0.00       0.97 -999.99    0.97    0.00000     0.00  LINEAR    2.50357E-01   -97.99    0.00000E+00     0.00
  -29.00     0.00       0.87 -999.99    0.87    0.00000     0.00  LINEAR    2.47504E-01   -84.42    0.00000E+00     0.00
  -28.00     0.00       0.25 -999.99    0.25    0.00000     0.00  LINEAR    2.30447E-01   -70.71    0.00000E+00     0.00
  -27.00     0.00      -0.99 -999.99   -0.99    0.00000     0.00  LINEAR    1.99883E-01   -56.94    0.00000E+00     0.00
  -26.00     0.00      -3.06 -999.99   -3.06    0.00000     0.00  LINEAR    1.57357E-01   -43.28    0.00000E+00     0.00
  -25.00     0.00      -6.56 -999.99   -6.56    0.00000     0.00  LINEAR    1.05232E-01   -30.17    0.00000E+00     0.00
  -24.00     0.00     -13.61 -999.99  -13.61    0.00000     0.00  LINEAR    4.67022E-02   -20.47    0.00000E+00     0.00
  -23.00     0.00     -22.28 -999.99  -22.28    0.00000     0.00  LINEAR    1.72143E-02  -153.20    0.00000E+00     0.00
  -22.00     0.00      -9.25 -999.99   -9.25    0.00000     0.00  LINEAR    7.71569E-02  -157.23    0.00000E+00     0.00
  -21.00     0.00      -4.50 -999.99   -4.50    0.00000     0.00  LINEAR    1.33407E-01  -144.55    0.00000E+00     0.00
  -20.00     0.00      -1.84 -999.99   -1.84    0.00000     0.00  LINEAR    1.81264E-01  -130.37    0.00000E+00     0.00
  -19.00     0.00      -0.26 -999.99   -0.26    0.00000     0.00  LINEAR    2.17364E-01  -115.68    0.00000E+00     0.00
  -18.00     0.00       0.57 -999.99    0.57    0.00000     0.00  LINEAR    2.39089E-01  -100.72    0.00000E+00     0.00
  -17.00     0.00       0.77 -999.99    0.77    0.00000     0.00  LINEAR    2.44735E-01   -85.58    0.00000E+00     0.00
  -16.00     0.00       0.37 -999.99    0.37    0.00000     0.00  LINEAR    2.33660E-01   -70.32    0.00000E+00     0.00
  -15.00     0.00      -0.71 -999.99   -0.71    0.00000     0.00  LINEAR    2.06369E-01   -54.96    0.00000E+00     0.00
  -14.00     0.00      -2.68 -999.99   -2.68    0.00000     0.00  LINEAR    1.64518E-01   -39.56    0.00000E+00     0.00
  -13.00     0.00      -6.11 -999.99   -6.11    0.00000     0.00  LINEAR    1.10831E-01   -24.23    0.00000E+00     0.00
  -12.00     0.00     -13.21 -999.99  -13.21    0.00000     0.00  LINEAR    4.89495E-02    -9.60    0.00000E+00     0.00
  -11.00     0.00     -22.42 -999.99  -22.42    0.00000     0.00  LINEAR    1.69559E-02  -166.47    0.00000E+00     0.00
  -10.00     0.00      -8.73 -999.99   -8.73    0.00000     0.00  LINEAR    8.19249E-02  -154.99    0.00000E+00     0.00
   -9.00     0.00      -3.99 -999.99   -3.99    0.00000     0.00  LINEAR    1.41463E-01  -139.58    0.00000E+00     0.00
   -8.00     0.00      -1.38 -999.99   -1.38    0.00000     0.00  LINEAR    1.91113E-01  -123.80    0.00000E+00     0.00
   -7.00     0.00       0.12 -999.99    0.12    0.00000     0.00  LINEAR    2.27113E-01  -107.88    0.00000E+00     0.00
   -6.00     0.00       0.84 -999.99    0.84    0.00000     0.00  LINEAR    2.46642E-01   -91.87    0.00000E+00     0.00
   -5.00     0.00       0.89 -999.99    0.89    0.00000     0.00  LINEAR    2.48058E-01   -75.78    0.00000E+00     0.00
   -4.00     0.00       0.27 -999.99    0.27    0.00000     0.00  LINEAR    2.31040E-01   -59.60    0.00000E+00     0.00
   -3.00     0.00      -1.13 -999.99   -1.13    0.00000     0.00  LINEAR    1.96637E-01   -43.31    0.00000E+00     0.00
   -2.00     0.00      -3.64 -999.99   -3.64    0.00000     0.00  LINEAR    1.47222E-01   -26.79    0.00000E+00     0.00
   -1.00     0.00      -8.28 -999.99   -8.28    0.00000     0.00  LINEAR    8.63311E-02    -9.61    0.00000E+00     0.00
    0.00     0.00     -21.60 -999.99  -21.60    0.00000     0.00  LINEAR    1.86347E-02    15.56    0.00000E+00     0.00
  -90.00     1.00     -11.24 -999.99  -11.24    0.00000     0.00  LINEAR    6.13792E-02   -45.64    1.41820E-13   128.74
  -89.00     1.00     -11.35  -53.29  -11.35    0.00074     0.46  RIGHT     6.06220E-02   -45.79    4.84945E-04   -51.11
  -88.00     1.00     -11.68  -47.27  -11.68    0.00127     0.95  RIGHT     5.83598E-02   -46.27    9.69495E-04   -50.65
  -87.00     1.00     -12.25  -43.75  -12.25    0.00123     1.52  RIGHT     5.46242E-02   -47.23    1.45320E-03   -49.89
  -86.00     1.00     -13.11  -41.27  -13.11    0.00011     2.24  LEFT      4.94848E-02   -49.00    1.93552E-03   -48.83
  -85.00     1.00     -14.31  -39.34  -14.30    0.00461     3.20  LEFT      4.30889E-02   -52.20    2.41575E-03   -47.47
  -84.00     1.00     -15.93  -37.77  -15.90    0.01726     4.52  LEFT      3.57687E-02   -58.21    2.89299E-03   -45.81
  -83.00     1.00     -17.95  -36.46  -17.89    0.05169     6.10  LEFT      2.83603E-02   -69.97    3.36610E-03   -43.84
  -82.00     1.00     -19.73  -35.33  -19.62    0.12761     6.06  LEFT      2.30897E-02   -92.57    3.83364E-03   -41.57
  -81.00     1.00     -19.37  -34.34  -19.23    0.17749     0.95  LEFT      2.40878E-02  -123.86    4.29384E-03   -39.00
  -80.00     1.00     -16.71  -33.48  -16.62    0.13524    -3.01  LEFT      3.27046E-02  -146.94    4.74457E-03   -36.13
  -79.00     1.00     -13.72  -32.71  -13.66    0.09111    -3.76  LEFT      4.61593E-02  -158.40    5.18328E-03   -32.97
  -78.00     1.00     -11.10  -32.03  -11.06    0.06461    -3.57  LEFT      6.23901E-02  -163.31    5.60704E-03   -29.51
  -77.00     1.00      -8.89  -31.42   -8.86    0.04878    -3.24  LEFT      8.04747E-02  -164.82    6.01245E-03   -25.75
  -76.00     1.00      -7.01  -30.88   -6.99    0.03869    -2.92  LEFT      9.99271E-02  -164.39    6.39567E-03   -21.69
  -75.00     1.00      -5.39  -30.41   -5.38    0.03181    -2.64  LEFT      1.20398E-01  -162.71    6.75245E-03   -17.34
  -74.00     1.00      -3.98  -30.00   -3.97    0.02685    -2.41  LEFT      1.41571E-01  -160.15    7.07812E-03   -12.70
  -73.00     1.00      -2.75  -29.65   -2.74    0.02312    -2.22  LEFT      1.63116E-01  -156.92    7.36764E-03    -7.77
  -72.00     1.00      -1.67  -29.37   -1.67    0.02021    -2.06  LEFT      1.84677E-01  -153.16    7.61567E-03    -2.55
  -71.00     1.00      -0.73  -29.14   -0.72    0.01787    -1.92  LEFT      2.05860E-01  -148.93    7.81665E-03     2.96
  -70.00     1.00       0.09  -28.98    0.10    0.01595    -1.80  LEFT      2.26233E-01  -144.29    7.96487E-03     8.75
  -69.00     1.00       0.79  -28.88    0.80    0.01432    -1.69  LEFT      2.45325E-01  -139.29    8.05463E-03    14.82
  -68.00     1.00       1.39  -28.85    1.39    0.01293    -1.60  LEFT      2.62635E-01  -133.95    8.08039E-03    21.17
  -67.00     1.00       1.87  -28.90    1.87    0.01172    -1.52  LEFT      2.77634E-01  -128.30    8.03690E-03    27.80
  -66.00     1.00       2.24  -29.03    2.24    0.01065    -1.44  LEFT      2.89780E-01  -122.35    7.91945E-03    34.71
  -65.00     1.00       2.50  -29.24    2.50    0.00969    -1.37  LEFT      2.98531E-01  -116.11    7.72403E-03    41.88
  -64.00     1.00       2.64  -29.56    2.64    0.00882    -1.31  LEFT      3.03361E-01  -109.62    7.44761E-03    49.32
  -63.00     1.00       2.65  -29.99    2.65    0.00802    -1.26  LEFT      3.03779E-01  -102.87    7.08833E-03    57.02
  -62.00     1.00       2.52  -30.55    2.52    0.00727    -1.20  LEFT      2.99354E-01   -95.89    6.64579E-03    64.98
  -61.00     1.00       2.24  -31.26    2.24    0.00657    -1.15  LEFT      2.89736E-01   -88.69    6.12124E-03    73.19
  -60.00     1.00       1.78  -32.17    1.78    0.00589    -1.10  LEFT      2.74682E-01   -81.32    5.51785E-03    81.64
  -59.00     1.00       1.10  -33.30    1.10    0.00521    -1.05  LEFT      2.54083E-01   -73.80    4.84088E-03    90.32
  -58.00     1.00       0.16  -34.75    0.16    0.00453    -1.00  LEFT      2.27990E-01   -66.20    4.09781E-03    99.20
  -57.00     1.00      -1.13  -36.64   -1.13    0.00381    -0.94  LEFT      1.96640E-01   -58.64    3.29853E-03   108.24
  -56.00     1.00      -2.89  -39.20   -2.89    0.00299    -0.86  LEFT      1.60485E-01   -51.37    2.45531E-03   117.36
  -55.00     1.00      -5.40  -43.01   -5.40    0.00201    -0.75  LEFT      1.20248E-01   -44.99    1.58287E-03   126.24
  -54.00     1.00      -9.26  -50.11   -9.26    0.00085    -0.52  LEFT      7.71245E-02   -41.53    6.99014E-04   133.11
  -53.00     1.00     -16.23  -61.14  -16.23    0.00385     0.24  LEFT      3.45749E-02   -53.36    1.96410E-04   -10.71
  -52.00     1.00     -17.80  -46.66  -17.79    0.02973    -1.17  LEFT      2.88470E-02  -141.24    1.04013E-03   -16.83
  -51.00     1.00     -10.00  -41.68   -9.99    0.01202    -1.32  LEFT      7.08463E-02  -160.29    1.84549E-03    -7.79
  -50.00     1.00      -5.74  -38.76   -5.74    0.00783    -1.20  LEFT      1.15608E-01  -156.96    2.58234E-03     2.51
  -49.00     1.00      -3.04  -36.82   -3.04    0.00602    -1.12  LEFT      1.57832E-01  -149.54    3.22876E-03    13.33
  -48.00     1.00      -1.18  -35.49   -1.18    0.00495    -1.07  LEFT      1.95440E-01  -140.62    3.76426E-03    24.49
  -47.00     1.00       0.11  -34.60    0.11    0.00419    -1.03  LEFT      2.26751E-01  -130.90    4.17035E-03    35.92
  -46.00     1.00       0.97  -34.07    0.97    0.00360    -0.99  LEFT      2.50293E-01  -120.68    4.43149E-03    47.59
  -45.00     1.00       1.46  -33.87    1.46    0.00309    -0.97  LEFT      2.64827E-01  -110.10    4.53594E-03    59.50
  -44.00     1.00       1.61  -33.98    1.61    0.00264    -0.94  LEFT      2.69413E-01   -99.23    4.47670E-03    71.62
  -43.00     1.00       1.41  -34.43    1.41    0.00222    -0.92  LEFT      2.63473E-01   -88.15    4.25223E-03    83.96
  -42.00     1.00       0.85  -35.25    0.85    0.00180    -0.89  LEFT      2.46859E-01   -76.91    3.86713E-03    96.50
  -41.00     1.00      -0.16  -36.55   -0.16    0.00136    -0.86  LEFT      2.19895E-01   -65.59    3.33253E-03   109.27
  -40.00     1.00      -1.73  -38.48   -1.73    0.00086    -0.83  LEFT      1.83417E-01   -54.35    2.66622E-03   122.27
  -39.00     1.00      -4.15  -41.46   -4.15    0.00020    -0.78  LEFT      1.38783E-01   -43.54    1.89252E-03   135.61
  -38.00     1.00      -8.12  -46.65   -8.12    0.00084    -0.68  RIGHT     8.79349E-02   -34.40    1.04179E-03   149.66
  -37.00     1.00     -16.32  -63.35  -16.32    0.00224    -0.22  RIGHT     3.41916E-02   -36.10    1.52277E-04   174.13
  -36.00     1.00     -17.79  -49.52  -17.79    0.01488    -1.21  LEFT      2.88839E-02  -152.87    7.48003E-04    -7.95
  -35.00     1.00      -8.65  -42.89   -8.65    0.00491    -1.08  LEFT      8.26676E-02  -158.20    1.60465E-03     7.14
  -34.00     1.00      -4.45  -39.46   -4.44    0.00305    -1.00  LEFT      1.34222E-01  -148.73    2.38149E-03    21.38
  -33.00     1.00      -1.93  -37.35   -1.93    0.00221    -0.96  LEFT      1.79234E-01  -136.97    3.03861E-03    35.55
  -32.00     1.00      -0.35  -36.02   -0.35    0.00168    -0.94  LEFT      2.14969E-01  -124.35    3.54037E-03    49.78
  -31.00     1.00       0.57  -35.28    0.58    0.00129    -0.92  LEFT      2.39216E-01  -111.28    3.85752E-03    64.12
  -30.00     1.00       0.97  -35.03    0.97    0.00097    -0.91  LEFT      2.50346E-01   -97.92    3.96919E-03    78.58
  -29.00     1.00       0.87  -35.26    0.87    0.00067    -0.89  LEFT      2.47426E-01   -84.35    3.86472E-03    93.18
  -28.00     1.00       0.24  -36.01    0.25    0.00038    -0.88  LEFT      2.30309E-01   -70.64    3.54491E-03   107.93
  -27.00     1.00      -0.99  -37.39   -0.99    0.00007    -0.87  LEFT      1.99696E-01   -56.88    3.02278E-03   122.87
  -26.00     1.00      -3.08  -39.68   -3.07    0.00034    -0.85  RIGHT     1.57137E-01   -43.22    2.32362E-03   138.09
  -25.00     1.00      -6.58  -43.57   -6.58    0.00100    -0.81  RIGHT     1.04995E-01   -30.12    1.48428E-03   153.92
  -24.00     1.00     -13.66  -52.15  -13.66    0.00277    -0.66  RIGHT     4.64659E-02   -20.46    5.52820E-04   173.01
  -23.00     1.00     -22.18  -54.37  -22.18    0.01341    -1.18  LEFT      1.74212E-02  -153.44    4.28333E-04    -6.50
  -22.00     1.00      -9.23  -44.21   -9.23    0.00258    -1.01  LEFT      7.73533E-02  -157.19    1.37927E-03    14.47
  -21.00     1.00      -4.49  -39.94   -4.49    0.00137    -0.96  LEFT      1.33565E-01  -144.51    2.25360E-03    30.83
  -20.00     1.00      -1.83  -37.48   -1.83    0.00087    -0.94  LEFT      1.81374E-01  -130.33    2.99187E-03    46.66
  -19.00     1.00      -0.26  -36.01   -0.25    0.00056    -0.93  LEFT      2.17424E-01  -115.64    3.54332E-03    62.40
  -18.00     1.00       0.57  -35.25    0.57    0.00034    -0.93  LEFT      2.39098E-01  -100.68    3.86770E-03    78.13
  -17.00     1.00       0.77  -35.10    0.77    0.00015    -0.92  LEFT      2.44696E-01   -85.54    3.93837E-03    93.91
  -16.00     1.00       0.37  -35.53    0.37    0.00001    -0.92  RIGHT     2.33582E-01   -70.28    3.74479E-03   109.76
  -15.00     1.00      -0.71  -36.65   -0.71    0.00018    -0.91  RIGHT     2.06262E-01   -54.93    3.29397E-03   125.73
  -14.00     1.00      -2.68  -38.67   -2.68    0.00039    -0.91  RIGHT     1.64392E-01   -39.53    2.61081E-03   141.89
  -13.00     1.00      -6.12  -42.20   -6.12    0.00074    -0.90  RIGHT     1.10700E-01   -24.20    1.73722E-03   158.49
  -12.00     1.00     -13.23  -49.73  -13.23    0.00179    -0.85  RIGHT     4.88245E-02    -9.58    7.30578E-04   177.30
  -11.00     1.00     -22.36  -56.06  -22.36    0.00549    -1.14  LEFT      1.70643E-02  -166.48    3.52523E-04    -1.90
  -10.00     1.00      -8.72  -43.99   -8.72    0.00096    -0.99  LEFT      8.20097E-02  -154.97    1.41506E-03    21.85
   -9.00     1.00      -3.99  -39.41   -3.98    0.00044    -0.97  LEFT      1.41519E-01  -139.55    2.39707E-03    38.96
   -8.00     1.00      -1.37  -36.84   -1.37    0.00022    -0.97  LEFT      1.91139E-01  -123.78    3.22274E-03    55.45
   -7.00     1.00       0.12  -35.34    0.12    0.00010    -0.97  LEFT      2.27111E-01  -107.87    3.82858E-03    71.78
   -6.00     1.00       0.84  -34.61    0.84    0.00002    -0.97  LEFT      2.46617E-01   -91.85    4.16540E-03    88.06
   -5.00     1.00       0.89  -34.53    0.89    0.00003    -0.97  RIGHT     2.48017E-01   -75.76    4.20237E-03   104.33
   -4.00     1.00       0.27  -35.11    0.27    0.00007    -0.97  RIGHT     2.30990E-01   -59.59    3.92978E-03   120.63
   -3.00     1.00      -1.13  -36.47   -1.13    0.00009    -0.98  RIGHT     1.96589E-01   -43.30    3.36046E-03   137.00
   -2.00     1.00      -3.64  -38.94   -3.64    0.00010    -0.98  RIGHT     1.47183E-01   -26.79    2.52952E-03   153.55
   -1.00     1.00      -8.28  -43.52   -8.28    0.00010    -0.99  RIGHT     8.63083E-02    -9.61    1.49249E-03   170.72
    0.00     1.00     -21.60  -56.76  -21.60    0.00000    -1.00  LINEAR    1.86319E-02    15.56    3.25220E-04  -164.44
  -90.00     2.00     -11.35 -999.99  -11.35    0.00000     0.00  LINEAR    6.06138E-02   -46.22    2.83623E-13   129.20
  -89.00     2.00     -11.46  -47.27  -11.46    0.00121     0.93  RIGHT     5.98614E-02   -46.38    9.69860E-04   -50.65
  -88.00     2.00     -11.79  -41.25  -11.79    0.00193     1.92  RIGHT     5.76145E-02   -46.91    1.93890E-03   -50.20
  -87.00     2.00     -12.37  -37.74  -12.36    0.00138     3.08  RIGHT     5.39081E-02   -47.97    2.90619E-03   -49.44
  -86.00     2.00     -13.23  -35.25  -13.20    0.00207     4.53  LEFT      4.88193E-02   -49.89    3.87061E-03   -48.38
  -85.00     2.00     -14.43  -33.32  -14.38    0.01238     6.44  LEFT      4.25108E-02   -53.35    4.83073E-03   -47.02
  -84.00     2.00     -16.03  -31.76  -15.92    0.03976     9.02  LEFT      3.53485E-02   -59.78    5.78472E-03   -45.35
  -83.00     2.00     -17.98  -30.44  -17.74    0.10990    11.94  LEFT      2.82427E-02   -72.17    6.73026E-03   -43.39
  -82.00     2.00     -19.57  -29.31  -19.13    0.25379    11.59  LEFT      2.35196E-02   -95.15    7.66446E-03   -41.12
  -81.00     2.00     -19.01  -28.33  -18.53    0.34124     1.27  LEFT      2.51022E-02  -125.27    8.58375E-03   -38.55
  -80.00     2.00     -16.39  -27.46  -16.06    0.25742    -6.22  LEFT      3.39412E-02  -147.02    9.48383E-03   -35.69
  -79.00     2.00     -13.48  -26.69  -13.28    0.17514    -7.45  LEFT      4.74077E-02  -157.96    1.03596E-02   -32.52
  -78.00     2.00     -10.93  -26.01  -10.80    0.12557    -7.05  LEFT      6.35968E-02  -162.73    1.12052E-02   -29.06
  -77.00     2.00      -8.76  -25.41   -8.67    0.09555    -6.39  LEFT      8.16264E-02  -164.21    1.20138E-02   -25.30
  -76.00     2.00      -6.91  -24.87   -6.84    0.07617    -5.77  LEFT      1.01017E-01  -163.78    1.27777E-02   -21.25
  -75.00     2.00      -5.32  -24.40   -5.26    0.06284    -5.23  LEFT      1.21421E-01  -162.12    1.34884E-02   -16.90
  -74.00     2.00      -3.92  -23.99   -3.88    0.05318    -4.79  LEFT      1.42516E-01  -159.59    1.41366E-02   -12.26
  -73.00     2.00      -2.71  -23.65   -2.67    0.04588    -4.41  LEFT      1.63975E-01  -156.38    1.47122E-02    -7.33
  -72.00     2.00      -1.64  -23.36   -1.61    0.04015    -4.09  LEFT      1.85439E-01  -152.63    1.52046E-02    -2.12
  -71.00     2.00      -0.70  -23.14   -0.68    0.03554    -3.81  LEFT      2.06512E-01  -148.42    1.56026E-02     3.39
  -70.00     2.00       0.11  -22.98    0.13    0.03172    -3.58  LEFT      2.26762E-01  -143.80    1.58949E-02     9.17
  -69.00     2.00       0.81  -22.88    0.83    0.02851    -3.37  LEFT      2.45719E-01  -138.81    1.60702E-02    15.24
  -68.00     2.00       1.39  -22.86    1.41    0.02575    -3.18  LEFT      2.62881E-01  -133.49    1.61173E-02    21.59
  -67.00     2.00       1.87  -22.91    1.89    0.02334    -3.02  LEFT      2.77721E-01  -127.85    1.60259E-02    28.22
  -66.00     2.00       2.24  -23.04    2.25    0.02122    -2.87  LEFT      2.89699E-01  -121.91    1.57867E-02    35.12
  -65.00     2.00       2.49  -23.26    2.50    0.01931    -2.74  LEFT      2.98273E-01  -115.68    1.53917E-02    42.29
  -64.00     2.00       2.63  -23.58    2.64    0.01757    -2.62  LEFT      3.02921E-01  -109.20    1.48349E-02    49.73
  -63.00     2.00       2.63  -24.01    2.64    0.01598    -2.50  LEFT      3.03156E-01  -102.46    1.41127E-02    57.43
  -62.00     2.00       2.50  -24.57    2.51    0.01449    -2.40  LEFT      2.98549E-01   -95.49    1.32244E-02    65.38
  -61.00     2.00       2.21  -25.29    2.22    0.01308    -2.29  LEFT      2.88755E-01   -88.31    1.21727E-02    73.58
  -60.00     2.00       1.74  -26.20    1.75    0.01172    -2.20  LEFT      2.73537E-01   -80.94    1.09640E-02    82.03
  -59.00     2.00       1.05  -27.35    1.06    0.01038    -2.09  LEFT      2.52789E-01   -73.43    9.60883E-03    90.70
  -58.00     2.00       0.10  -28.81    0.11    0.00901    -1.99  LEFT      2.26569E-01   -65.85    8.12237E-03    99.57
  -57.00     2.00      -1.20  -30.71   -1.19    0.00755    -1.87  LEFT      1.95118E-01   -58.32    6.52440E-03   108.61
  -56.00     2.00      -2.98  -33.31   -2.98    0.00591    -1.71  LEFT      1.58893E-01   -51.08    4.83954E-03   117.71
  -55.00     2.00      -5.52  -37.18   -5.51    0.00393    -1.48  LEFT      1.18628E-01   -44.78    3.09732E-03   126.56
  -54.00     2.00      -9.44  -44.50   -9.44    0.00162    -1.01  LEFT      7.55404E-02   -41.52    1.33352E-03   133.21
  -53.00     2.00     -16.55  -53.94  -16.55    0.00898     0.58  LEFT      3.33088E-02   -54.71    4.49642E-04   -13.03
  -52.00     2.00     -17.47  -40.42  -17.45    0.05724    -2.43  LEFT      2.99596E-02  -142.98    2.13456E-03   -16.57
  -51.00     2.00      -9.83  -35.55   -9.82    0.02362    -2.64  LEFT      7.22185E-02  -160.26    3.73874E-03    -7.47
  -50.00     2.00      -5.65  -32.67   -5.64    0.01552    -2.39  LEFT      1.16864E-01  -156.73    5.20503E-03     2.84
  -49.00     2.00      -2.98  -30.76   -2.97    0.01197    -2.24  LEFT      1.58909E-01  -149.26    6.48980E-03    13.66
  -48.00     2.00      -1.14  -29.44   -1.14    0.00986    -2.13  LEFT      1.96302E-01  -140.32    7.55224E-03    24.81
  -47.00     2.00       0.13  -28.56    0.14    0.00835    -2.05  LEFT      2.27373E-01  -130.60    8.35561E-03    36.24
  -46.00     2.00       0.98  -28.04    0.99    0.00717    -1.98  LEFT      2.50659E-01  -120.38    8.86904E-03    47.91
  -45.00     2.00       1.46  -27.85    1.47    0.00616    -1.93  LEFT      2.64931E-01  -109.80    9.06933E-03    59.81
  -44.00     2.00       1.60  -27.97    1.61    0.00526    -1.88  LEFT      2.69257E-01   -98.94    8.94271E-03    71.93
  -43.00     2.00       1.40  -28.43    1.40    0.00442    -1.83  LEFT      2.63072E-01   -87.86    8.48639E-03    84.26
  -42.00     2.00       0.83  -29.26    0.83    0.00358    -1.78  LEFT      2.46235E-01   -76.63    7.70980E-03    96.80
  -41.00     2.00      -0.19  -30.56   -0.19    0.00270    -1.73  LEFT      2.19082E-01   -65.33    6.63540E-03   109.56
  -40.00     2.00      -1.78  -32.52   -1.77    0.00169    -1.66  LEFT      1.82456E-01   -54.10    5.29897E-03   122.56
  -39.00     2.00      -4.22  -35.52   -4.22    0.00037    -1.56  LEFT      1.37724E-01   -43.32    3.74927E-03   135.90
  -38.00     2.00      -8.23  -40.78   -8.23    0.00174    -1.35  RIGHT     8.68353E-02   -34.26    2.04711E-03   149.96
  -37.00     2.00     -16.58  -58.38  -16.58    0.00440    -0.39  RIGHT     3.31775E-02   -36.61    2.69965E-04   176.09
  -36.00     2.00     -17.51  -43.31  -17.50    0.02869    -2.43  LEFT      2.98277E-02  -153.53    1.52918E-03    -7.63
  -35.00     2.00      -8.56  -36.79   -8.55    0.00971    -2.15  LEFT      8.36037E-02  -158.06    3.23870E-03     7.40
  -34.00     2.00      -4.39  -33.40   -4.39    0.00606    -2.00  LEFT      1.35016E-01  -148.52    4.78740E-03    21.63
  -33.00     2.00      -1.90  -31.30   -1.90    0.00440    -1.92  LEFT      1.79845E-01  -136.75    6.09573E-03    35.79
  -32.00     2.00      -0.34  -29.99   -0.33    0.00335    -1.88  LEFT      2.15373E-01  -124.14    7.09274E-03    50.01
  -31.00     2.00       0.58  -29.25    0.59    0.00258    -1.84  LEFT      2.39402E-01  -111.07    7.72024E-03    64.34
  -30.00     2.00       0.97  -29.01    0.97    0.00193    -1.81  LEFT      2.50314E-01   -97.71    7.93690E-03    78.80
  -29.00     2.00       0.86  -29.25    0.86    0.00134    -1.79  LEFT      2.47188E-01   -84.15    7.72172E-03    93.39
  -28.00     2.00       0.23  -30.00    0.23    0.00076    -1.76  LEFT      2.29893E-01   -70.45    7.07665E-03   108.13
  -27.00     2.00      -1.02  -31.40   -1.01    0.00012    -1.73  LEFT      1.99137E-01   -56.70    6.02802E-03   123.07
  -26.00     2.00      -3.11  -33.70   -3.11    0.00069    -1.69  RIGHT     1.56477E-01   -43.05    4.62658E-03   138.29
  -25.00     2.00      -6.64  -37.62   -6.63    0.00202    -1.61  RIGHT     1.04283E-01   -29.97    2.94621E-03   154.12
  -24.00     2.00     -13.79  -46.31  -13.79    0.00562    -1.32  RIGHT     4.57575E-02   -20.43    1.08314E-03   173.32
  -23.00     2.00     -21.87  -48.13  -21.86    0.02575    -2.36  LEFT      1.80442E-02  -154.12    8.77937E-04    -6.13
  -22.00     2.00      -9.17  -38.13   -9.16    0.00513    -2.02  LEFT      7.79418E-02  -157.07    2.77762E-03    14.65
  -21.00     2.00      -4.46  -33.89   -4.45    0.00273    -1.93  LEFT      1.34037E-01  -144.36    4.52283E-03    30.99
  -20.00     2.00      -1.81  -31.45   -1.81    0.00172    -1.89  LEFT      1.81705E-01  -130.19    5.99520E-03    46.81
  -19.00     2.00      -0.25  -29.98   -0.24    0.00111    -1.87  LEFT      2.17601E-01  -115.50    7.09349E-03    62.54
  -18.00     2.00       0.57  -29.23    0.58    0.00067    -1.85  LEFT      2.39122E-01  -100.55    7.73757E-03    78.26
  -17.00     2.00       0.77  -29.08    0.77    0.00031    -1.84  LEFT      2.44580E-01   -85.42    7.87451E-03    94.04
  -16.00     2.00       0.36  -29.52    0.36    0.00003    -1.84  RIGHT     2.33347E-01   -70.16    7.48352E-03   109.88
  -15.00     2.00      -0.73  -30.64   -0.72    0.00037    -1.83  RIGHT     2.05938E-01   -54.82    6.57888E-03   125.85
  -14.00     2.00      -2.70  -32.66   -2.70    0.00079    -1.82  RIGHT     1.64016E-01   -39.43    5.21055E-03   142.00
  -13.00     2.00      -6.15  -36.21   -6.15    0.00148    -1.80  RIGHT     1.10307E-01   -24.11    3.46240E-03   158.60
  -12.00     2.00     -13.30  -43.78  -13.29    0.00361    -1.70  RIGHT     4.84498E-02    -9.51    1.44925E-03   177.43
  -11.00     2.00     -22.20  -49.91  -22.19    0.01076    -2.28  LEFT      1.73895E-02  -166.49    7.15790E-04    -1.66
  -10.00     2.00      -8.70  -37.94   -8.69    0.00191    -1.97  LEFT      8.22640E-02  -154.89    2.83926E-03    21.93
   -9.00     2.00      -3.97  -33.37   -3.97    0.00088    -1.94  LEFT      1.41687E-01  -139.49    4.80099E-03    39.03
   -8.00     2.00      -1.37  -30.81   -1.37    0.00045    -1.93  LEFT      1.91217E-01  -123.72    6.44984E-03    55.51
   -7.00     2.00       0.12  -29.32    0.13    0.00021    -1.93  LEFT      2.27104E-01  -107.81    7.65906E-03    71.84
   -6.00     2.00       0.84  -28.59    0.84    0.00005    -1.94  LEFT      2.46541E-01   -91.81    8.33059E-03    88.11
   -5.00     2.00       0.88  -28.51    0.89    0.00006    -1.94  RIGHT     2.47892E-01   -75.73    8.40292E-03   104.37
   -4.00     2.00       0.26  -29.10    0.27    0.00013    -1.95  RIGHT     2.30842E-01   -59.56    7.85680E-03   120.66
   -3.00     2.00      -1.14  -30.46   -1.13    0.00018    -1.96  RIGHT     1.96445E-01   -43.28    6.71795E-03   137.03
   -2.00     2.00      -3.65  -32.92   -3.65    0.00020    -1.97  RIGHT     1.47067E-01   -26.77    5.05653E-03   153.57
   -1.00     2.00      -8.29  -37.51   -8.28    0.00020    -1.98  RIGHT     8.62398E-02    -9.60    2.98351E-03   170.73
    0.00     2.00     -21.60  -50.74  -21.60    0.00000    -2.00  LINEAR    1.86233E-02    15.56    6.50341E-04  -164.44
  -90.00     3.00     -11.53 -999.99  -11.53    0.00000     0.00  LINEAR    5.93726E-02   -47.23    4.25423E-13   129.95
  -89.00     3.00     -11.64  -43.75  -11.64    0.00107     1.42  RIGHT     5.86290E-02   -47.41    1.45466E-03   -49.89
  -88.00     3.00     -11.97  -37.73  -11.96    0.00126     2.95  RIGHT     5.64103E-02   -48.03    2.90801E-03   -49.44
  -87.00     3.00     -12.56  -34.21  -12.53    0.00082     4.72  LEFT      5.27578E-02   -49.26    4.35859E-03   -48.68
  -86.00     3.00     -13.42  -31.73  -13.36    0.00799     6.91  LEFT      4.77621E-02   -51.45    5.80462E-03   -47.62
  -85.00     3.00     -14.62  -29.80  -14.49    0.02672     9.76  LEFT      4.16141E-02   -55.36    7.24390E-03   -46.26
  -84.00     3.00     -16.18  -28.24  -15.92    0.07259    13.44  LEFT      3.47396E-02   -62.49    8.67360E-03   -44.60
  -83.00     3.00     -18.00  -26.92  -17.48    0.17964    17.25  LEFT      2.81735E-02   -75.88    1.00902E-02   -42.63
  -82.00     3.00     -19.27  -25.80  -18.39    0.37698    16.05  LEFT      2.43674E-02   -99.20    1.14892E-02   -40.37
  -81.00     3.00     -18.43  -24.81  -17.53    0.47930     0.30  LEFT      2.68404E-02  -127.33    1.28653E-02   -37.80
  -80.00     3.00     -15.87  -23.95  -15.25    0.35657    -9.71  LEFT      3.60039E-02  -147.08    1.42120E-02   -34.94
  -79.00     3.00     -13.11  -23.18  -12.70    0.24678   -10.99  LEFT      4.94850E-02  -157.23    1.55216E-02   -31.78
  -78.00     3.00     -10.66  -22.50  -10.39    0.17997   -10.32  LEFT      6.56051E-02  -161.77    1.67851E-02   -28.32
  -77.00     3.00      -8.56  -21.90   -8.37    0.13861    -9.36  LEFT      8.35431E-02  -163.21    1.79924E-02   -24.56
  -76.00     3.00      -6.76  -21.37   -6.61    0.11139    -8.48  LEFT      1.02831E-01  -162.79    1.91319E-02   -20.51
  -75.00     3.00      -5.19  -20.90   -5.08    0.09240    -7.72  LEFT      1.23119E-01  -161.16    2.01908E-02   -16.17
  -74.00     3.00      -3.83  -20.49   -3.74    0.07850    -7.07  LEFT      1.44086E-01  -158.66    2.11552E-02   -11.54
  -73.00     3.00      -2.63  -20.15   -2.55    0.06790    -6.53  LEFT      1.65400E-01  -155.48    2.20100E-02    -6.61
  -72.00     3.00      -1.58  -19.87   -1.51    0.05955    -6.06  LEFT      1.86699E-01  -151.77    2.27393E-02    -1.40
  -71.00     3.00      -0.66  -19.64   -0.60    0.05278    -5.67  LEFT      2.07588E-01  -147.58    2.33265E-02     4.10
  -70.00     3.00       0.14  -19.49    0.19    0.04717    -5.32  LEFT      2.27632E-01  -142.99    2.37547E-02     9.89
  -69.00     3.00       0.83  -19.39    0.87    0.04243    -5.01  LEFT      2.46363E-01  -138.02    2.40068E-02    15.95
  -68.00     3.00       1.41  -19.37    1.44    0.03835    -4.74  LEFT      2.63278E-01  -132.72    2.40666E-02    22.30
  -67.00     3.00       1.87  -19.43    1.91    0.03478    -4.50  LEFT      2.77852E-01  -127.10    2.39186E-02    28.92
  -66.00     3.00       2.23  -19.56    2.26    0.03162    -4.29  LEFT      2.89548E-01  -121.17    2.35490E-02    35.81
  -65.00     3.00       2.48  -19.79    2.50    0.02878    -4.09  LEFT      2.97828E-01  -114.97    2.29460E-02    42.98
  -64.00     3.00       2.60  -20.11    2.63    0.02620    -3.91  LEFT      3.02173E-01  -108.50    2.21010E-02    50.41
  -63.00     3.00       2.60  -20.55    2.62    0.02382    -3.74  LEFT      3.02103E-01  -101.78    2.10088E-02    58.10
  -62.00     3.00       2.46  -21.13    2.48    0.02160    -3.58  LEFT      2.97194E-01   -94.83    1.96686E-02    66.04
  -61.00     3.00       2.16  -21.86    2.18    0.01950    -3.43  LEFT      2.87109E-01   -87.66    1.80846E-02    74.24
  -60.00     3.00       1.68  -22.78    1.69    0.01746    -3.28  LEFT      2.71618E-01   -80.32    1.62667E-02    82.67
  -59.00     3.00       0.98  -23.94    0.99    0.01545    -3.13  LEFT      2.50625E-01   -72.83    1.42310E-02    91.34
  -58.00     3.00       0.01  -25.42    0.02    0.01339    -2.97  LEFT      2.24194E-01   -65.28    1.20006E-02   100.20
  -57.00     3.00      -1.31  -27.35   -1.30    0.01119    -2.78  LEFT      1.92576E-01   -57.78    9.60522E-03   109.22
  -56.00     3.00      -3.13  -30.00   -3.12    0.00871    -2.55  LEFT      1.56240E-01   -50.61    7.08202E-03   118.29
  -55.00     3.00      -5.72  -33.98   -5.71    0.00569    -2.19  LEFT      1.15931E-01   -44.43    4.47542E-03   127.08
  -54.00     3.00      -9.75  -41.71   -9.74    0.00226    -1.44  LEFT      7.29107E-02   -41.55    1.83972E-03   133.31
  -53.00     3.00     -17.10  -48.74  -17.09    0.01737     1.12  LEFT      3.12753E-02   -57.25    8.18210E-04   -15.63
  -52.00     3.00     -16.93  -36.53  -16.88    0.08051    -3.82  LEFT      3.18870E-02  -145.53    3.33683E-03   -16.13
  -51.00     3.00      -9.56  -31.84   -9.53    0.03442    -3.93  LEFT      7.44998E-02  -160.19    5.72668E-03    -6.93
  -50.00     3.00      -5.49  -29.04   -5.48    0.02294    -3.57  LEFT      1.18946E-01  -156.34    7.90756E-03     3.40
  -49.00     3.00      -2.88  -27.16   -2.87    0.01779    -3.34  LEFT      1.60690E-01  -148.79    9.81452E-03    14.21
  -48.00     3.00      -1.08  -25.87   -1.07    0.01468    -3.19  LEFT      1.97724E-01  -139.82    1.13868E-02    25.36
  -47.00     3.00       0.17  -25.01    0.19    0.01245    -3.07  LEFT      2.28395E-01  -130.10    1.25698E-02    36.78
  -46.00     3.00       1.00  -24.51    1.01    0.01069    -2.97  LEFT      2.51255E-01  -119.88    1.33179E-02    48.45
  -45.00     3.00       1.47  -24.33    1.48    0.00919    -2.89  LEFT      2.65089E-01  -109.31    1.35969E-02    60.34
  -44.00     3.00       1.59  -24.47    1.60    0.00785    -2.81  LEFT      2.68984E-01   -98.46    1.33867E-02    72.45
  -43.00     3.00       1.38  -24.94    1.39    0.00658    -2.74  LEFT      2.62390E-01   -87.39    1.26839E-02    84.76
  -42.00     3.00       0.79  -25.79    0.80    0.00532    -2.67  LEFT      2.45185E-01   -76.17    1.15031E-02    97.30
  -41.00     3.00      -0.24  -27.11   -0.23    0.00400    -2.59  LEFT      2.17720E-01   -64.89    9.87860E-03   110.05
  -40.00     3.00      -1.86  -29.09   -1.85    0.00247    -2.49  LEFT      1.80850E-01   -53.69    7.86454E-03   123.04
  -39.00     3.00      -4.33  -32.14   -4.33    0.00047    -2.33  LEFT      1.35956E-01   -42.96    5.53436E-03   136.38
  -38.00     3.00      -8.41  -37.52   -8.41    0.00275    -2.00  RIGHT     8.50029E-02   -34.03    2.97950E-03   150.48
  -37.00     3.00     -17.03  -56.91  -17.03    0.00627    -0.46  RIGHT     3.15034E-02   -37.58    3.19702E-04  -179.43
  -36.00     3.00     -17.06  -39.48  -17.03    0.04059    -3.65  LEFT      3.14127E-02  -154.51    2.37651E-03    -7.11
  -35.00     3.00      -8.40  -33.14   -8.38    0.01431    -3.21  LEFT      8.51591E-02  -157.81    4.93129E-03     7.84
  -34.00     3.00      -4.31  -29.80   -4.30    0.00900    -3.00  LEFT      1.36332E-01  -148.18    7.24184E-03    22.04
  -33.00     3.00      -1.85  -27.74   -1.84    0.00655    -2.88  LEFT      1.80857E-01  -136.39    9.18953E-03    36.19
  -32.00     3.00      -0.31  -26.44   -0.30    0.00500    -2.81  LEFT      2.16040E-01  -123.77    1.06687E-02    50.40
  -31.00     3.00       0.59  -25.72    0.60    0.00384    -2.76  LEFT      2.39703E-01  -110.72    1.15930E-02    64.72
  -30.00     3.00       0.97  -25.49    0.98    0.00287    -2.72  LEFT      2.50252E-01   -97.37    1.19013E-02    79.16
  -29.00     3.00       0.84  -25.74    0.85    0.00199    -2.68  LEFT      2.46787E-01   -83.81    1.15630E-02    93.74
  -28.00     3.00       0.20  -26.51    0.21    0.00112    -2.64  LEFT      2.29194E-01   -70.13    1.05818E-02   108.48
  -27.00     3.00      -1.06  -27.92   -1.05    0.00016    -2.60  LEFT      1.98200E-01   -56.39    8.99797E-03   123.40
  -26.00     3.00      -3.17  -30.24   -3.17    0.00106    -2.54  RIGHT     1.55375E-01   -42.76    6.88809E-03   138.62
  -25.00     3.00      -6.74  -34.21   -6.73    0.00308    -2.42  RIGHT     1.03096E-01   -29.73    4.36336E-03   154.46
  -24.00     3.00     -14.02  -43.09  -14.01    0.00865    -1.95  RIGHT     4.45782E-02   -20.40    1.56851E-03   173.85
  -23.00     3.00     -21.39  -44.27  -21.36    0.03619    -3.55  LEFT      1.90888E-02  -155.12    1.37006E-03    -5.53
  -22.00     3.00      -9.06  -34.51   -9.05    0.00758    -3.03  LEFT      7.89202E-02  -156.86    4.21400E-03    14.95
  -21.00     3.00      -4.41  -30.32   -4.40    0.00407    -2.89  LEFT      1.34820E-01  -144.13    6.82323E-03    31.25
  -20.00     3.00      -1.79  -27.90   -1.78    0.00257    -2.83  LEFT      1.82252E-01  -129.95    9.02130E-03    47.06
  -19.00     3.00      -0.24  -26.45   -0.23    0.00166    -2.80  LEFT      2.17893E-01  -115.28    1.06572E-02    62.77
  -18.00     3.00       0.57  -25.70    0.58    0.00100    -2.78  LEFT      2.39160E-01  -100.33    1.16117E-02    78.49
  -17.00     3.00       0.76  -25.56    0.77    0.00045    -2.77  LEFT      2.44384E-01   -85.22    1.18061E-02    94.25
  -16.00     3.00       0.34  -26.01    0.35    0.00005    -2.76  RIGHT     2.32954E-01   -69.97    1.12100E-02   110.08
  -15.00     3.00      -0.75  -27.14   -0.74    0.00056    -2.74  RIGHT     2.05399E-01   -54.64    9.84559E-03   126.03
  -14.00     3.00      -2.74  -29.17   -2.73    0.00120    -2.73  RIGHT     1.63387E-01   -39.27    7.78808E-03   142.17
  -13.00     3.00      -6.20  -32.74   -6.19    0.00224    -2.69  RIGHT     1.09651E-01   -23.96    5.16351E-03   158.77
  -12.00     3.00     -13.41  -40.38  -13.40    0.00549    -2.55  RIGHT     4.78258E-02    -9.40    2.14412E-03   177.65
  -11.00     3.00     -21.93  -46.17  -21.91    0.01560    -3.40  LEFT      1.79308E-02  -166.49    1.10054E-03    -1.27
  -10.00     3.00      -8.65  -34.37   -8.64    0.00285    -2.96  LEFT      8.26870E-02  -154.77    4.28169E-03    22.07
   -9.00     3.00      -3.96  -29.83   -3.95    0.00131    -2.91  LEFT      1.41967E-01  -139.38    7.21860E-03    39.14
   -8.00     3.00      -1.37  -27.28   -1.35    0.00067    -2.90  LEFT      1.91347E-01  -123.63    9.68561E-03    55.62
   -7.00     3.00       0.12  -25.79    0.13    0.00031    -2.90  LEFT      2.27093E-01  -107.73    1.14933E-02    71.92
   -6.00     3.00       0.83  -25.07    0.84    0.00007    -2.90  LEFT      2.46414E-01   -91.74    1.24953E-02    88.18
   -5.00     3.00       0.88  -24.99    0.89    0.00009    -2.91  RIGHT     2.47684E-01   -75.67    1.25998E-02   104.43
   -4.00     3.00       0.26  -25.58    0.27    0.00020    -2.92  RIGHT     2.30596E-01   -59.51    1.17783E-02   120.71
   -3.00     3.00      -1.15  -26.94   -1.14    0.00027    -2.94  RIGHT     1.96205E-01   -43.24    1.00695E-02   137.06
   -2.00     3.00      -3.66  -29.41   -3.65    0.00031    -2.95  RIGHT     1.46873E-01   -26.75    7.57856E-03   153.59
   -1.00     3.00      -8.30  -33.99   -8.29    0.00030    -2.97  RIGHT     8.61258E-02    -9.59    4.47157E-03   170.74
    0.00     3.00     -21.61  -47.22  -21.60    0.00000    -3.00  LINEAR    1.86092E-02    15.56    9.75264E-04  -164.44
  -90.00     4.00     -11.78 -999.99  -11.78    0.00000     0.00  LINEAR    5.77129E-02   -48.76    5.67100E-13   131.01
  -89.00     4.00     -11.89  -41.25  -11.88    0.00009     1.95  LEFT      5.69835E-02   -48.99    1.93916E-03   -48.83
  -88.00     4.00     -12.22  -35.23  -12.20    0.00167     4.04  LEFT      5.48105E-02   -49.74    3.87643E-03   -48.38
  -87.00     4.00     -12.81  -31.72  -12.75    0.00699     6.46  LEFT      5.12452E-02   -51.20    5.80971E-03   -47.62
  -86.00     4.00     -13.67  -29.23  -13.55    0.02044     9.40  LEFT      4.63998E-02   -53.80    7.73651E-03   -46.57
  -85.00     4.00     -14.85  -27.31  -14.61    0.05142    13.10  LEFT      4.05090E-02   -58.35    9.65372E-03   -45.21
  -84.00     4.00     -16.35  -25.74  -15.88    0.12019    17.60  LEFT      3.40900E-02   -66.47    1.15575E-02   -43.54
  -83.00     4.00     -17.95  -24.43  -17.07    0.26318    21.69  LEFT      2.83445E-02   -81.05    1.34429E-02   -41.58
  -82.00     4.00     -18.77  -23.31  -17.46    0.49506    18.87  LEFT      2.58013E-02  -104.30    1.53039E-02   -39.32
  -81.00     4.00     -17.65  -22.32  -16.37    0.58214    -2.57  LEFT      2.93547E-02  -129.66    1.71333E-02   -36.76
  -80.00     4.00     -15.20  -21.46  -14.28    0.42802   -13.30  LEFT      3.88938E-02  -147.04    1.89223E-02   -33.90
  -79.00     4.00     -12.62  -20.70  -11.99    0.30345   -14.24  LEFT      5.23858E-02  -156.24    2.06606E-02   -30.74
  -78.00     4.00     -10.30  -20.02   -9.86    0.22612   -13.29  LEFT      6.84101E-02  -160.47    2.23361E-02   -27.28
  -77.00     4.00      -8.29  -19.42   -7.97    0.17681   -12.09  LEFT      8.62196E-02  -161.83    2.39352E-02   -23.53
  -76.00     4.00      -6.55  -18.89   -6.30    0.14356   -11.00  LEFT      1.05361E-01  -161.43    2.54426E-02   -19.48
  -75.00     4.00      -5.03  -18.43   -4.84    0.11994   -10.05  LEFT      1.25487E-01  -159.83    2.68412E-02   -15.15
  -74.00     4.00      -3.70  -18.02   -3.54    0.10241    -9.24  LEFT      1.46271E-01  -157.37    2.81123E-02   -10.52
  -73.00     4.00      -2.53  -17.68   -2.40    0.08890    -8.55  LEFT      1.67377E-01  -154.24    2.92360E-02    -5.60
  -72.00     4.00      -1.50  -17.40   -1.39    0.07817    -7.96  LEFT      1.88443E-01  -150.56    3.01911E-02    -0.39
  -71.00     4.00      -0.60  -17.19   -0.50    0.06943    -7.45  LEFT      2.09071E-01  -146.41    3.09557E-02     5.10
  -70.00     4.00       0.19  -17.03    0.27    0.06214    -7.01  LEFT      2.28826E-01  -141.85    3.15073E-02    10.88
  -69.00     4.00       0.86  -16.95    0.93    0.05596    -6.61  LEFT      2.47237E-01  -136.92    3.18236E-02    16.94
  -68.00     4.00       1.42  -16.93    1.49    0.05062    -6.26  LEFT      2.63804E-01  -131.65    3.18831E-02    23.28
  -67.00     4.00       1.88  -16.99    1.94    0.04594    -5.95  LEFT      2.78005E-01  -126.05    3.16654E-02    29.89
  -66.00     4.00       2.23  -17.13    2.28    0.04178    -5.67  LEFT      2.89306E-01  -120.15    3.11525E-02    36.78
  -65.00     4.00       2.46  -17.36    2.50    0.03805    -5.41  LEFT      2.97173E-01  -113.97    3.03293E-02    43.93
  -64.00     4.00       2.57  -17.70    2.61    0.03464    -5.17  LEFT      3.01096E-01  -107.53    2.91845E-02    51.35
  -63.00     4.00       2.56  -18.15    2.60    0.03150    -4.95  LEFT      3.00599E-01  -100.83    2.77117E-02    59.03
  -62.00     4.00       2.40  -18.73    2.44    0.02856    -4.74  LEFT      2.95270E-01   -93.90    2.59104E-02    66.97
  -61.00     4.00       2.09  -19.47    2.12    0.02576    -4.54  LEFT      2.84780E-01   -86.76    2.37866E-02    75.16
  -60.00     4.00       1.59  -20.41    1.62    0.02305    -4.35  LEFT      2.68910E-01   -79.44    2.13541E-02    83.58
  -59.00     4.00       0.87  -21.59    0.90    0.02036    -4.14  LEFT      2.47577E-01   -71.99    1.86349E-02    92.23
  -58.00     4.00      -0.12  -23.11   -0.10    0.01761    -3.93  LEFT      2.20856E-01   -64.48    1.56598E-02   101.07
  -57.00     4.00      -1.47  -25.08   -1.45    0.01466    -3.68  LEFT      1.89011E-01   -57.04    1.24693E-02   110.07
  -56.00     4.00      -3.33  -27.81   -3.32    0.01130    -3.36  LEFT      1.52524E-01   -49.95    9.11293E-03   119.11
  -55.00     4.00      -6.00  -31.96   -5.99    0.00720    -2.85  LEFT      1.12162E-01   -43.96    5.65033E-03   127.80
  -54.00     4.00     -10.19  -40.33  -10.19    0.00274    -1.78  LEFT      6.92525E-02   -41.67    2.15534E-03   133.28
  -53.00     4.00     -17.87  -44.32  -17.86    0.03287     1.97  LEFT      2.86204E-02   -61.52    1.36115E-03   -17.72
  -52.00     4.00     -16.19  -33.56  -16.11    0.09819    -5.33  LEFT      3.47089E-02  -148.49    4.69901E-03   -15.50
  -51.00     4.00      -9.20  -29.10   -9.15    0.04418    -5.20  LEFT      7.76803E-02  -160.04    7.85466E-03    -6.18
  -50.00     4.00      -5.29  -26.39   -5.25    0.02998    -4.73  LEFT      1.21836E-01  -155.78    1.07278E-02     4.17
  -49.00     4.00      -2.75  -24.57   -2.72    0.02342    -4.44  LEFT      1.63156E-01  -148.13    1.32326E-02    14.99
  -48.00     4.00      -0.99  -23.31   -0.97    0.01938    -4.24  LEFT      1.99685E-01  -139.13    1.52891E-02    26.13
  -47.00     4.00       0.23  -22.48    0.25    0.01647    -4.08  LEFT      2.29794E-01  -129.40    1.68255E-02    37.54
  -46.00     4.00       1.03  -22.00    1.05    0.01414    -3.95  LEFT      2.52056E-01  -119.19    1.77819E-02    49.19
  -45.00     4.00       1.47  -21.84    1.49    0.01216    -3.84  LEFT      2.65280E-01  -108.62    1.81139E-02    61.07
  -44.00     4.00       1.58  -21.99    1.60    0.01038    -3.74  LEFT      2.68574E-01   -97.78    1.77961E-02    73.17
  -43.00     4.00       1.35  -22.48    1.36    0.00869    -3.65  LEFT      2.61412E-01   -86.73    1.68249E-02    85.47
  -42.00     4.00       0.74  -23.35    0.75    0.00702    -3.55  LEFT      2.43694E-01   -75.53    1.52211E-02    97.99
  -41.00     4.00      -0.32  -24.70   -0.30    0.00524    -3.44  LEFT      2.15795E-01   -64.27    1.30315E-02   110.73
  -40.00     4.00      -1.96  -26.72   -1.95    0.00319    -3.31  LEFT      1.78590E-01   -53.11    1.03288E-02   123.72
  -39.00     4.00      -4.49  -29.84   -4.48    0.00047    -3.09  LEFT      1.33475E-01   -42.45    7.21172E-03   137.05
  -38.00     4.00      -8.68  -35.40   -8.67    0.00395    -2.63  RIGHT     8.24384E-02   -33.72    3.80249E-03   151.20
  -37.00     4.00     -17.69  -58.23  -17.69    0.00736    -0.34  RIGHT     2.91984E-02   -39.19    2.74488E-04  -167.66
  -36.00     4.00     -16.46  -36.57  -16.42    0.05010    -4.86  LEFT      3.36523E-02  -155.66    3.32261E-03    -6.39
  -35.00     4.00      -8.18  -30.47   -8.15    0.01862    -4.26  LEFT      8.73265E-02  -157.45    6.71103E-03     8.45
  -34.00     4.00      -4.19  -27.21   -4.17    0.01183    -3.99  LEFT      1.38162E-01  -147.69    9.76828E-03    22.63
  -33.00     4.00      -1.79  -25.18   -1.77    0.00864    -3.84  LEFT      1.82258E-01  -135.88    1.23375E-02    36.75
  -32.00     4.00      -0.27  -23.91   -0.26    0.00661    -3.75  LEFT      2.16956E-01  -123.27    1.42793E-02    50.95
  -31.00     4.00       0.61  -23.21    0.62    0.00507    -3.68  LEFT      2.40109E-01  -110.22    1.54801E-02    65.25
  -30.00     4.00       0.96  -23.00    0.98    0.00379    -3.62  LEFT      2.50151E-01   -96.88    1.58601E-02    79.68
  -29.00     4.00       0.82  -23.26    0.84    0.00262    -3.57  LEFT      2.46212E-01   -83.35    1.53801E-02    94.24
  -28.00     4.00       0.17  -24.05    0.18    0.00146    -3.52  LEFT      2.28206E-01   -69.68    1.40466E-02   108.96
  -27.00     4.00      -1.12  -25.48   -1.10    0.00017    -3.46  LEFT      1.96882E-01   -55.96    1.19146E-02   123.87
  -26.00     4.00      -3.26  -27.83   -3.25    0.00148    -3.38  RIGHT     1.53829E-01   -42.36    9.08717E-03   139.08
  -25.00     4.00      -6.88  -31.86   -6.86    0.00423    -3.21  RIGHT     1.01434E-01   -29.39    5.71324E-03   154.93
  -24.00     4.00     -14.35  -41.04  -14.34    0.01194    -2.56  RIGHT     4.29301E-02   -20.37    1.98651E-03   174.61
  -23.00     4.00     -20.74  -41.31  -20.70    0.04430    -4.72  LEFT      2.05617E-02  -156.30    1.92589E-03    -4.73
  -22.00     4.00      -8.91  -31.87   -8.89    0.00992    -4.03  LEFT      8.02849E-02  -156.57    5.70721E-03    15.37
  -21.00     4.00      -4.34  -27.75   -4.32    0.00537    -3.85  LEFT      1.35910E-01  -143.79    9.17006E-03    31.63
  -20.00     4.00      -1.75  -25.36   -1.73    0.00340    -3.77  LEFT      1.83012E-01  -129.62    1.20812E-02    47.41
  -19.00     4.00      -0.22  -23.93   -0.20    0.00220    -3.73  LEFT      2.18296E-01  -114.96    1.42410E-02    63.10
  -18.00     4.00       0.57  -23.20    0.59    0.00132    -3.70  LEFT      2.39208E-01  -100.03    1.54918E-02    78.80
  -17.00     4.00       0.75  -23.07    0.77    0.00059    -3.69  LEFT      2.44105E-01   -84.93    1.57305E-02    94.54
  -16.00     4.00       0.32  -23.53    0.34    0.00007    -3.67  RIGHT     2.32401E-01   -69.71    1.49180E-02   110.36
  -15.00     4.00      -0.78  -24.67   -0.76    0.00076    -3.66  RIGHT     2.04641E-01   -54.39    1.30849E-02   126.30
  -14.00     4.00      -2.78  -26.72   -2.77    0.00161    -3.64  RIGHT     1.62507E-01   -39.04    1.03322E-02   142.42
  -13.00     4.00      -6.27  -30.32   -6.26    0.00302    -3.59  RIGHT     1.08734E-01   -23.76    6.82846E-03   159.01
  -12.00     4.00     -13.57  -38.05  -13.55    0.00745    -3.39  RIGHT     4.69534E-02    -9.24    2.80330E-03   177.95
  -11.00     4.00     -21.57  -43.38  -21.54    0.01988    -4.50  LEFT      1.86871E-02  -166.49    1.51752E-03    -0.75
  -10.00     4.00      -8.59  -31.81   -8.57    0.00376    -3.94  LEFT      8.32772E-02  -154.60    5.75141E-03    22.26
[...]
  -71.00   359.00      -0.73  -29.14   -0.72    0.01787     1.92  RIGHT     2.05860E-01  -148.93    7.81665E-03  -177.04
  -70.00   359.00       0.09  -28.98    0.10    0.01595     1.80  RIGHT     2.26233E-01  -144.29    7.96487E-03  -171.25
  -69.00   359.00       0.79  -28.88    0.80    0.01432     1.69  RIGHT     2.45325E-01  -139.29    8.05463E-03  -165.18
  -68.00   359.00       1.39  -28.85    1.39    0.01293     1.60  RIGHT     2.62635E-01  -133.95    8.08039E-03  -158.83
  -67.00   359.00       1.87  -28.90    1.87    0.01172     1.52  RIGHT     2.77634E-01  -128.30    8.03690E-03  -152.20
  -66.00   359.00       2.24  -29.03    2.24    0.01065     1.44  RIGHT     2.89780E-01  -122.35    7.91945E-03  -145.29
  -65.00   359.00       2.50  -29.24    2.50    0.00969     1.37  RIGHT     2.98531E-01  -116.11    7.72403E-03  -138.12
  -64.00   359.00       2.64  -29.56    2.64    0.00882     1.31  RIGHT     3.03361E-01  -109.62    7.44761E-03  -130.68
  -63.00   359.00       2.65  -29.99    2.65    0.00802     1.26  RIGHT     3.03779E-01  -102.87    7.08833E-03  -122.98
  -62.00   359.00       2.52  -30.55    2.52    0.00727     1.20  RIGHT     2.99354E-01   -95.89    6.64579E-03  -115.02
  -61.00   359.00       2.24  -31.26    2.24    0.00657     1.15  RIGHT     2.89736E-01   -88.69    6.12124E-03  -106.81
  -60.00   359.00       1.78  -32.17    1.78    0.00589     1.10  RIGHT     2.74682E-01   -81.32    5.51785E-03   -98.36
  -59.00   359.00       1.10  -33.30    1.10    0.00521     1.05  RIGHT     2.54083E-01   -73.80    4.84088E-03   -89.68
  -58.00   359.00       0.16  -34.75    0.16    0.00453     1.00  RIGHT     2.27990E-01   -66.20    4.09781E-03   -80.80
  -57.00   359.00      -1.13  -36.64   -1.13    0.00381     0.94  RIGHT     1.96640E-01   -58.64    3.29853E-03   -71.76
  -56.00   359.00      -2.89  -39.20   -2.89    0.00299     0.86  RIGHT     1.60485E-01   -51.37    2.45531E-03   -62.64
  -55.00   359.00      -5.40  -43.01   -5.40    0.00201     0.75  RIGHT     1.20248E-01   -44.99    1.58287E-03   -53.76
  -54.00   359.00      -9.26  -50.11   -9.26    0.00085     0.52  RIGHT     7.71245E-02   -41.53    6.99014E-04   -46.89
  -53.00   359.00     -16.23  -61.14  -16.23    0.00385    -0.24  RIGHT     3.45749E-02   -53.36    1.96410E-04   169.29
  -52.00   359.00     -17.80  -46.66  -17.79    0.02973     1.17  RIGHT     2.88470E-02  -141.24    1.04013E-03   163.17
  -51.00   359.00     -10.00  -41.68   -9.99    0.01202     1.32  RIGHT     7.08463E-02  -160.29    1.84549E-03   172.21
  -50.00   359.00      -5.74  -38.76   -5.74    0.00783     1.20  RIGHT     1.15608E-01  -156.96    2.58234E-03  -177.49
  -49.00   359.00      -3.04  -36.82   -3.04    0.00602     1.12  RIGHT     1.57832E-01  -149.54    3.22876E-03  -166.67
  -48.00   359.00      -1.18  -35.49   -1.18    0.00495     1.07  RIGHT     1.95440E-01  -140.62    3.76426E-03  -155.51
  -47.00   359.00       0.11  -34.60    0.11    0.00419     1.03  RIGHT     2.26751E-01  -130.90    4.17035E-03  -144.08
  -46.00   359.00       0.97  -34.07    0.97    0.00360     0.99  RIGHT     2.50293E-01  -120.68    4.43149E-03  -132.41
  -45.00   359.00       1.46  -33.87    1.46    0.00309     0.97  RIGHT     2.64827E-01  -110.10    4.53594E-03  -120.50
  -44.00   359.00       1.61  -33.98    1.61    0.00264     0.94  RIGHT     2.69413E-01   -99.23    4.47670E-03  -108.38
  -43.00   359.00       1.41  -34.43    1.41    0.00222     0.92  RIGHT     2.63473E-01   -88.15    4.25223E-03   -96.04
  -42.00   359.00       0.85  -35.25    0.85    0.00180     0.89  RIGHT     2.46859E-01   -76.91    3.86713E-03   -83.50
  -41.00   359.00      -0.16  -36.55   -0.16    0.00136     0.86  RIGHT     2.19895E-01   -65.59    3.33253E-03   -70.73
  -40.00   359.00      -1.73  -38.48   -1.73    0.00086     0.83  RIGHT     1.83417E-01   -54.35    2.66622E-03   -57.73
  -39.00   359.00      -4.15  -41.46   -4.15    0.00020     0.78  RIGHT     1.38783E-01   -43.54    1.89252E-03   -44.39
  -38.00   359.00      -8.12  -46.65   -8.12    0.00084     0.68  LEFT      8.79349E-02   -34.40    1.04179E-03   -30.34
  -37.00   359.00     -16.32  -63.35  -16.32    0.00224     0.22  LEFT      3.41916E-02   -36.10    1.52277E-04    -5.87
  -36.00   359.00     -17.79  -49.52  -17.79    0.01488     1.21  RIGHT     2.88839E-02  -152.87    7.48003E-04   172.05
  -35.00   359.00      -8.65  -42.89   -8.65    0.00491     1.08  RIGHT     8.26676E-02  -158.20    1.60465E-03  -172.86
  -34.00   359.00      -4.45  -39.46   -4.44    0.00305     1.00  RIGHT     1.34222E-01  -148.73    2.38149E-03  -158.62
  -33.00   359.00      -1.93  -37.35   -1.93    0.00221     0.96  RIGHT     1.79234E-01  -136.97    3.03861E-03  -144.45
  -32.00   359.00      -0.35  -36.02   -0.35    0.00168     0.94  RIGHT     2.14969E-01  -124.35    3.54037E-03  -130.22
  -31.00   359.00       0.57  -35.28    0.58    0.00129     0.92  RIGHT     2.39216E-01  -111.28    3.85752E-03  -115.88
  -30.00   359.00       0.97  -35.03    0.97    0.00097     0.91  RIGHT     2.50346E-01   -97.92    3.96919E-03  -101.42
  -29.00   359.00       0.87  -35.26    0.87    0.00067     0.89  RIGHT     2.47426E-01   -84.35    3.86472E-03   -86.82
  -28.00   359.00       0.24  -36.01    0.25    0.00038     0.88  RIGHT     2.30309E-01   -70.64    3.54491E-03   -72.07
  -27.00   359.00      -0.99  -37.39   -0.99    0.00007     0.87  RIGHT     1.99696E-01   -56.88    3.02278E-03   -57.13
  -26.00   359.00      -3.08  -39.68   -3.07    0.00034     0.85  LEFT      1.57137E-01   -43.22    2.32362E-03   -41.91
  -25.00   359.00      -6.58  -43.57   -6.58    0.00100     0.81  LEFT      1.04995E-01   -30.12    1.48428E-03   -26.08
  -24.00   359.00     -13.66  -52.15  -13.66    0.00277     0.66  LEFT      4.64659E-02   -20.46    5.52820E-04    -6.99
  -23.00   359.00     -22.18  -54.37  -22.18    0.01341     1.18  RIGHT     1.74212E-02  -153.44    4.28333E-04   173.50
  -22.00   359.00      -9.23  -44.21   -9.23    0.00258     1.01  RIGHT     7.73533E-02  -157.19    1.37927E-03  -165.53
  -21.00   359.00      -4.49  -39.94   -4.49    0.00137     0.96  RIGHT     1.33565E-01  -144.51    2.25360E-03  -149.17
  -20.00   359.00      -1.83  -37.48   -1.83    0.00087     0.94  RIGHT     1.81374E-01  -130.33    2.99187E-03  -133.34
  -19.00   359.00      -0.26  -36.01   -0.25    0.00056     0.93  RIGHT     2.17424E-01  -115.64    3.54332E-03  -117.60
  -18.00   359.00       0.57  -35.25    0.57    0.00034     0.93  RIGHT     2.39098E-01  -100.68    3.86770E-03  -101.87
  -17.00   359.00       0.77  -35.10    0.77    0.00015     0.92  RIGHT     2.44696E-01   -85.54    3.93837E-03   -86.09
  -16.00   359.00       0.37  -35.53    0.37    0.00001     0.92  LEFT      2.33582E-01   -70.28    3.74479E-03   -70.24
  -15.00   359.00      -0.71  -36.65   -0.71    0.00018     0.91  LEFT      2.06262E-01   -54.93    3.29397E-03   -54.27
  -14.00   359.00      -2.68  -38.67   -2.68    0.00039     0.91  LEFT      1.64392E-01   -39.53    2.61081E-03   -38.11
  -13.00   359.00      -6.12  -42.20   -6.12    0.00074     0.90  LEFT      1.10700E-01   -24.20    1.73722E-03   -21.51
  -12.00   359.00     -13.23  -49.73  -13.23    0.00179     0.85  LEFT      4.88245E-02    -9.58    7.30578E-04    -2.70
  -11.00   359.00     -22.36  -56.06  -22.36    0.00549     1.14  RIGHT     1.70643E-02  -166.48    3.52523E-04   178.10
  -10.00   359.00      -8.72  -43.99   -8.72    0.00096     0.99  RIGHT     8.20097E-02  -154.97    1.41506E-03  -158.15
   -9.00   359.00      -3.99  -39.41   -3.98    0.00044     0.97  RIGHT     1.41519E-01  -139.55    2.39707E-03  -141.04
   -8.00   359.00      -1.37  -36.84   -1.37    0.00022     0.97  RIGHT     1.91139E-01  -123.78    3.22274E-03  -124.55
   -7.00   359.00       0.12  -35.34    0.12    0.00010     0.97  RIGHT     2.27111E-01  -107.87    3.82858E-03  -108.22
   -6.00   359.00       0.84  -34.61    0.84    0.00002     0.97  RIGHT     2.46617E-01   -91.85    4.16540E-03   -91.94
   -5.00   359.00       0.89  -34.53    0.89    0.00003     0.97  LEFT      2.48017E-01   -75.76    4.20237E-03   -75.67
   -4.00   359.00       0.27  -35.11    0.27    0.00007     0.97  LEFT      2.30990E-01   -59.59    3.92978E-03   -59.37
   -3.00   359.00      -1.13  -36.47   -1.13    0.00009     0.98  LEFT      1.96589E-01   -43.30    3.36046E-03   -43.00
   -2.00   359.00      -3.64  -38.94   -3.64    0.00010     0.98  LEFT      1.47183E-01   -26.79    2.52952E-03   -26.45
   -1.00   359.00      -8.28  -43.52   -8.28    0.00010     0.99  LEFT      8.63083E-02    -9.61    1.49249E-03    -9.28
    0.00   359.00     -21.60  -56.76  -21.60    0.00000     1.00  LINEAR    1.86319E-02    15.56    3.25220E-04    15.56
  -90.00   360.00     -11.20 -999.99  -11.20    0.00000     0.00  LINEAR    6.16376E-02   -45.46    1.65878E-22   128.59
  -89.00   360.00     -11.31 -999.99  -11.31    0.00000     0.00  LINEAR    6.08789E-02   -45.60    5.67204E-13   -51.26
  -88.00   360.00     -11.64 -999.99  -11.64    0.00000     0.00  LINEAR    5.86119E-02   -46.06    1.13395E-12   -50.80
  -87.00   360.00     -12.22 -999.99  -12.22    0.00000     0.00  LINEAR    5.48670E-02   -47.00    1.69973E-12   -50.05
  -86.00   360.00     -13.07 -999.99  -13.07    0.00000     0.00  LINEAR    4.97116E-02   -48.71    2.26389E-12   -48.99
  -85.00   360.00     -14.27 -999.99  -14.27    0.00000     0.00  LINEAR    4.32880E-02   -51.83    2.82564E-12   -47.62
  -84.00   360.00     -15.90 -999.99  -15.90    0.00000     0.00  LINEAR    3.59176E-02   -57.69    3.38393E-12   -45.96
  -83.00   360.00     -17.93 -999.99  -17.93    0.00000     0.00  LINEAR    2.84120E-02   -69.24    3.93741E-12   -43.99
  -82.00   360.00     -19.78 -999.99  -19.78    0.00000     0.00  LINEAR    2.29603E-02   -91.68    4.48442E-12   -41.72
  -81.00   360.00     -19.49 -999.99  -19.49    0.00000     0.00  LINEAR    2.37550E-02  -123.35    5.02289E-12   -39.15
  -80.00   360.00     -16.82 -999.99  -16.82    0.00000     0.00  LINEAR    3.22926E-02  -146.91    5.55033E-12   -36.28
  -79.00   360.00     -13.80 -999.99  -13.80    0.00000     0.00  LINEAR    4.57428E-02  -158.54    6.06378E-12   -33.12
  -78.00   360.00     -11.16 -999.99  -11.16    0.00000     0.00  LINEAR    6.19876E-02  -163.51    6.55979E-12   -29.65
  -77.00   360.00      -8.93 -999.99   -8.93    0.00000     0.00  LINEAR    8.00906E-02  -165.03    7.03439E-12   -25.89
  -76.00   360.00      -7.04 -999.99   -7.04    0.00000     0.00  LINEAR    9.95634E-02  -164.59    7.48311E-12   -21.84
  -75.00   360.00      -5.41 -999.99   -5.41    0.00000     0.00  LINEAR    1.20057E-01  -162.90    7.90096E-12   -17.49
  -74.00   360.00      -4.00 -999.99   -4.00    0.00000     0.00  LINEAR    1.41255E-01  -160.34    8.28248E-12   -12.85
  -73.00   360.00      -2.77 -999.99   -2.77    0.00000     0.00  LINEAR    1.62829E-01  -157.10    8.62177E-12    -7.91
  -72.00   360.00      -1.69 -999.99   -1.69    0.00000     0.00  LINEAR    1.84422E-01  -153.33    8.91260E-12    -2.69
  -71.00   360.00      -0.74 -999.99   -0.74    0.00000     0.00  LINEAR    2.05642E-01  -149.09    9.14843E-12     2.81
  -70.00   360.00       0.08 -999.99    0.08    0.00000     0.00  LINEAR    2.26055E-01  -144.46    9.32260E-12     8.61
  -69.00   360.00       0.79 -999.99    0.79    0.00000     0.00  LINEAR    2.45193E-01  -139.45    9.42843E-12    14.68
  -68.00   360.00       1.38 -999.99    1.38    0.00000     0.00  LINEAR    2.62552E-01  -134.11    9.45940E-12    21.03
  -67.00   360.00       1.87 -999.99    1.87    0.00000     0.00  LINEAR    2.77603E-01  -128.45    9.40940E-12    27.66
  -66.00   360.00       2.24 -999.99    2.24    0.00000     0.00  LINEAR    2.89806E-01  -122.49    9.27287E-12    34.57
  -65.00   360.00       2.50 -999.99    2.50    0.00000     0.00  LINEAR    2.98616E-01  -116.26    9.04513E-12    41.74
  -64.00   360.00       2.64 -999.99    2.64    0.00000     0.00  LINEAR    3.03506E-01  -109.76    8.72259E-12    49.19
  -63.00   360.00       2.66 -999.99    2.66    0.00000     0.00  LINEAR    3.03986E-01  -103.00    8.30309E-12    56.89
  -62.00   360.00       2.53 -999.99    2.53    0.00000     0.00  LINEAR    2.99621E-01   -96.02    7.78610E-12    64.85
  -61.00   360.00       2.25 -999.99    2.25    0.00000     0.00  LINEAR    2.90061E-01   -88.82    7.17310E-12    73.06
  -60.00   360.00       1.79 -999.99    1.79    0.00000     0.00  LINEAR    2.75062E-01   -81.44    6.46775E-12    81.51
  -59.00   360.00       1.11 -999.99    1.11    0.00000     0.00  LINEAR    2.54513E-01   -73.92    5.67618E-12    90.19
  -58.00   360.00       0.17 -999.99    0.17    0.00000     0.00  LINEAR    2.28464E-01   -66.31    4.80716E-12    99.07
  -57.00   360.00      -1.11 -999.99   -1.11    0.00000     0.00  LINEAR    1.97147E-01   -58.75    3.87220E-12   108.12
  -56.00   360.00      -2.86 -999.99   -2.86    0.00000     0.00  LINEAR    1.61015E-01   -51.47    2.88564E-12   117.24
  -55.00   360.00      -5.36 -999.99   -5.36    0.00000     0.00  LINEAR    1.20788E-01   -45.06    1.86471E-12   126.14
  -54.00   360.00      -9.20 -999.99   -9.20    0.00000     0.00  LINEAR    7.76535E-02   -41.53    8.30180E-13   133.07
  -53.00   360.00     -16.12 -999.99  -16.12    0.00000     0.00  LINEAR    3.50039E-02   -52.94    2.18756E-13    -9.76
  -52.00   360.00     -17.91 -999.99  -17.91    0.00000     0.00  LINEAR    2.84844E-02  -140.63    1.20595E-12   -16.91
  -51.00   360.00     -10.05 -999.99  -10.05    0.00000     0.00  LINEAR    7.03884E-02  -160.29    2.14918E-12    -7.89
  -50.00   360.00      -5.77 -999.99   -5.77    0.00000     0.00  LINEAR    1.15188E-01  -157.04    3.01245E-12     2.40
  -49.00   360.00      -3.06 -999.99   -3.06    0.00000     0.00  LINEAR    1.57472E-01  -149.64    3.77009E-12    13.22
  -48.00   360.00      -1.19 -999.99   -1.19    0.00000     0.00  LINEAR    1.95151E-01  -140.72    4.39808E-12    24.38
  -47.00   360.00       0.10 -999.99    0.10    0.00000     0.00  LINEAR    2.26542E-01  -131.00    4.87477E-12    35.81
  -46.00   360.00       0.96 -999.99    0.96    0.00000     0.00  LINEAR    2.50169E-01  -120.78    5.18192E-12    47.49
  -45.00   360.00       1.46 -999.99    1.46    0.00000     0.00  LINEAR    2.64791E-01  -110.20    5.30578E-12    59.39
  -44.00   360.00       1.61 -999.99    1.61    0.00000     0.00  LINEAR    2.69464E-01   -99.33    5.23807E-12    71.52
  -43.00   360.00       1.42 -999.99    1.42    0.00000     0.00  LINEAR    2.63606E-01   -88.24    4.97697E-12    83.85
  -42.00   360.00       0.85 -999.99    0.85    0.00000     0.00  LINEAR    2.47066E-01   -77.00    4.52781E-12    96.40
  -41.00   360.00      -0.15 -999.99   -0.15    0.00000     0.00  LINEAR    2.20165E-01   -65.68    3.90355E-12   109.17
  -40.00   360.00      -1.72 -999.99   -1.72    0.00000     0.00  LINEAR    1.83736E-01   -54.43    3.12498E-12   122.18
  -39.00   360.00      -4.13 -999.99   -4.13    0.00000     0.00  LINEAR    1.39136E-01   -43.62    2.22049E-12   135.51
  -38.00   360.00      -8.08 -999.99   -8.08    0.00000     0.00  LINEAR    8.83015E-02   -34.45    1.22561E-12   149.56
  -37.00   360.00     -16.24 -999.99  -16.24    0.00000     0.00  LINEAR    3.45311E-02   -35.94    1.84882E-13   173.56
  -36.00   360.00     -17.88 -999.99  -17.88    0.00000     0.00  LINEAR    2.85707E-02  -152.63    8.68402E-13    -8.05
  -35.00   360.00      -8.69 -999.99   -8.69    0.00000     0.00  LINEAR    8.23550E-02  -158.25    1.87108E-12     7.05
  -34.00   360.00      -4.46 -999.99   -4.46    0.00000     0.00  LINEAR    1.33957E-01  -148.80    2.78066E-12    21.29
  -33.00   360.00      -1.94 -999.99   -1.94    0.00000     0.00  LINEAR    1.79029E-01  -137.04    3.55038E-12    35.47
  -32.00   360.00      -0.36 -999.99   -0.36    0.00000     0.00  LINEAR    2.14833E-01  -124.43    4.13852E-12    49.70
  -31.00   360.00       0.57 -999.99    0.57    0.00000     0.00  LINEAR    2.39154E-01  -111.36    4.51078E-12    64.04
  -30.00   360.00       0.97 -999.99    0.97    0.00000     0.00  LINEAR    2.50357E-01   -97.99    4.64270E-12    78.50
  -29.00   360.00       0.87 -999.99    0.87    0.00000     0.00  LINEAR    2.47504E-01   -84.42    4.52172E-12    93.10
  -28.00   360.00       0.25 -999.99    0.25    0.00000     0.00  LINEAR    2.30447E-01   -70.71    4.14874E-12   107.86
  -27.00   360.00      -0.99 -999.99   -0.99    0.00000     0.00  LINEAR    1.99883E-01   -56.94    3.53891E-12   122.80
  -26.00   360.00      -3.06 -999.99   -3.06    0.00000     0.00  LINEAR    1.57357E-01   -43.28    2.72177E-12   138.02
  -25.00   360.00      -6.56 -999.99   -6.56    0.00000     0.00  LINEAR    1.05232E-01   -30.17    1.74040E-12   153.85
  -24.00   360.00     -13.61 -999.99  -13.61    0.00000     0.00  LINEAR    4.67022E-02   -20.47    6.50973E-13   172.91
  -23.00   360.00     -22.28 -999.99  -22.28    0.00000     0.00  LINEAR    1.72143E-02  -153.20    4.96838E-13    -6.63
  -22.00   360.00      -9.25 -999.99   -9.25    0.00000     0.00  LINEAR    7.71569E-02  -157.23    1.60950E-12    14.41
  -21.00   360.00      -4.50 -999.99   -4.50    0.00000     0.00  LINEAR    1.33407E-01  -144.55    2.63279E-12    30.77
  -20.00   360.00      -1.84 -999.99   -1.84    0.00000     0.00  LINEAR    1.81264E-01  -130.37    3.49710E-12    46.61
  -19.00   360.00      -0.26 -999.99   -0.26    0.00000     0.00  LINEAR    2.17364E-01  -115.68    4.14298E-12    62.35
  -18.00   360.00       0.57 -999.99    0.57    0.00000     0.00  LINEAR    2.39089E-01  -100.72    4.52329E-12    78.08
  -17.00   360.00       0.77 -999.99    0.77    0.00000     0.00  LINEAR    2.44735E-01   -85.58    4.60681E-12    93.87
  -16.00   360.00       0.37 -999.99    0.37    0.00000     0.00  LINEAR    2.33660E-01   -70.32    4.38114E-12   109.73
  -15.00   360.00      -0.71 -999.99   -0.71    0.00000     0.00  LINEAR    2.06369E-01   -54.96    3.85445E-12   125.70
  -14.00   360.00      -2.68 -999.99   -2.68    0.00000     0.00  LINEAR    1.64518E-01   -39.56    3.05581E-12   141.85
  -13.00   360.00      -6.11 -999.99   -6.11    0.00000     0.00  LINEAR    1.10831E-01   -24.23    2.03422E-12   158.46
  -12.00   360.00     -13.21 -999.99  -13.21    0.00000     0.00  LINEAR    4.89495E-02    -9.60    8.56816E-13   177.26
  -11.00   360.00     -22.42 -999.99  -22.42    0.00000     0.00  LINEAR    1.69559E-02  -166.47    4.10222E-13    -1.98
  -10.00   360.00      -8.73 -999.99   -8.73    0.00000     0.00  LINEAR    8.19249E-02  -154.99    1.65330E-12    21.82
   -9.00   360.00      -3.99 -999.99   -3.99    0.00000     0.00  LINEAR    1.41463E-01  -139.58    2.80231E-12    38.94
   -8.00   360.00      -1.38 -999.99   -1.38    0.00000     0.00  LINEAR    1.91113E-01  -123.80    3.76852E-12    55.43
   -7.00   360.00       0.12 -999.99    0.12    0.00000     0.00  LINEAR    2.27113E-01  -107.88    4.47759E-12    71.77
   -6.00   360.00       0.84 -999.99    0.84    0.00000     0.00  LINEAR    2.46642E-01   -91.87    4.87197E-12    88.05
   -5.00   360.00       0.89 -999.99    0.89    0.00000     0.00  LINEAR    2.48058E-01   -75.78    4.91551E-12   104.32
   -4.00   360.00       0.27 -999.99    0.27    0.00000     0.00  LINEAR    2.31040E-01   -59.60    4.59686E-12   120.62
   -3.00   360.00      -1.13 -999.99   -1.13    0.00000     0.00  LINEAR    1.96637E-01   -43.31    3.93102E-12   137.00
   -2.00   360.00      -3.64 -999.99   -3.64    0.00000     0.00  LINEAR    1.47222E-01   -26.79    2.95905E-12   153.55
   -1.00   360.00      -8.28 -999.99   -8.28    0.00000     0.00  LINEAR    8.63311E-02    -9.61    1.74593E-12   170.72
    0.00   360.00     -21.60 -999.99  -21.60    0.00000     0.00  LINEAR    1.86347E-02    15.56    3.80402E-13  -164.44


   AVERAGE POWER GAIN= 6.93208E-01       SOLID ANGLE USED IN AVERAGING=( 2.0000)*PI STERADIANS.








 ***** DATA CARD NO.  7   EN   0    91   361  1003 -9.00000E+01  0.00000E+00  1.00000E+00  1.00000E+00  0.00000E+00  0.00000E+00

 RUN TIME =     2.172
